@<TRIPOS>MOLECULE
500 polymers at 25 percent
9500 9000
NO_CHARGES
@<TRIPOS>ATOM
1 A -6.985245 1.721163 -5.655221 A
2 A -6.103456 1.531480 -5.433172 A
3 A -5.336818 1.819283 -5.931119 A
4 A -4.443789 2.047670 -5.676898 A
5 A -3.677708 2.147966 -5.107313 A
6 A -2.941131 2.121876 -4.515709 A
7 B -2.387655 2.120800 -5.350667 B
8 B -2.520800 1.633283 -6.143795 B
9 B -2.462129 1.099630 -6.906774 B
10 B -2.554897 0.835213 -7.809765 B
11 B -3.148778 0.060321 -7.962925 B
12 B -4.050967 0.222690 -8.206219 B
13 B -4.990235 0.196174 -8.226290 B
14 A -5.817659 0.360613 -7.862268 A
15 A -6.034527 1.319539 -7.812388 A
16 A -5.939850 2.113862 -7.336218 A
17 A -5.143417 2.409070 -7.838626 A
18 A -4.259745 2.665743 -7.786702 A
19 A -3.517988 2.575126 -6.971552 A
20 A 9.889170 5.167993 -1.860495 A
21 A 10.596040 4.614812 -1.418863 A
22 A 11.425510 4.203353 -1.556939 A
23 A 11.944820 4.008144 -2.334095 A
24 A 11.848450 3.087813 -2.414380 A
25 A 11.835320 2.239488 -2.856272 A
26 B 11.196390 2.149925 -3.594465 B
27 B 10.561480 1.659956 -4.098269 B
28 B 10.504190 0.989679 -4.744162 B
29 B 10.597990 0.555291 -5.590578 B
30 B 9.717560 0.290513 -5.770467 B
31 B 10.004380 -0.373082 -6.351252 B
32 B 9.693566 -1.136013 -5.903532 B
33 A 10.174020 -1.486819 -6.675974 A
34 A 11.101460 -1.230540 -6.749670 A
35 A 11.484140 -1.828487 -6.069057 A
36 A 11.442610 -2.733770 -5.653359 A
37 A 10.623920 -2.761991 -5.191751 A
38 A 10.965930 -2.054375 -4.664196 A
39 A -4.366211 -12.302750 13.361770 A
40 A -5.209838 -12.074090 12.979090 A
41 A -4.863091 -11.542240 12.219200 A
42 A -4.619563 -10.718340 11.799560 A
43 A -5.164328 -9.958412 12.058370 A
44 A -5.604599 -10.010720 11.182420 A
45 B -5.727222 -10.568130 10.370540 B
46 B -5.384913 -11.294070 9.822569 B
47 B -4.661623 -11.684870 9.383903 B
48 B -4.520406 -11.877620 8.437387 B
49 B -4.991269 -11.313660 7.819367 B
50 B -5.974953 -11.212740 7.502267 B
51 B -5.816663 -10.828160 8.379270 B
52 A -4.995090 -10.293110 8.485615 A
53 A -5.407862 -9.928241 9.344427 A
54 A -5.955625 -9.397729 8.810059 A
55 A -6.378355 -9.997685 8.266493 A
56 A -6.986755 -10.608080 7.905997 A
57 A -7.918914 -10.550550 7.597779 A
58 A 3.602861 -8.188622 13.399930 A
59 A 3.607406 -7.557986 12.719270 A
60 A 3.224427 -7.448684 11.836710 A
61 A 2.822949 -7.664644 10.964460 A
62 A 2.112499 -7.846731 10.291490 A
63 A 1.212753 -8.187867 10.428930 A
64 B 0.540367 -7.511496 10.402540 B
65 B -0.003633 -7.541764 9.626298 B
66 B 0.732893 -7.591774 9.015905 B
67 B 1.666345 -7.574315 8.793520 B
68 B 2.287374 -8.208789 8.458540 B
69 B 2.442119 -8.999189 7.932130 B
70 B 2.440812 -9.726169 7.332133 B
71 A 1.989299 -10.348830 6.766037 A
72 A 2.132483 -11.301600 6.722936 A
73 A 2.118418 -12.063400 7.333731 A
74 A 2.459998 -12.586900 8.082951 A
75 A 3.039754 -13.069710 8.673222 A
76 A 3.406488 -13.183800 9.570046 A
77 A 6.794548 -7.525343 1.469987 A
78 A 6.323250 -6.677548 1.558919 A
79 A 5.984198 -5.854942 1.991846 A
80 A 5.685804 -6.594378 2.564245 A
81 A 5.702253 -7.037477 3.422521 A
82 A 5.982614 -6.480461 4.189049 A
83 B 6.608561 -6.009725 4.734989 B
84 B 7.463254 -6.404619 4.930411 B
85 B 8.172837 -6.947700 4.547528 B
86 B 7.386018 -7.093683 4.063448 B
87 B 6.809519 -7.466042 3.411328 B
88 B 6.666066 -7.127361 2.502710 B
89 B 6.084929 -7.799688 2.279529 B
90 A 5.164429 -7.947037 2.087413 A
91 A 4.512022 -8.518912 2.529711 A
92 A 4.092517 -9.140229 1.898335 A
93 A 4.726816 -8.609784 1.419492 A
94 A 4.528831 -9.318245 0.837874 A
95 A 4.159217 -9.449044 -0.036188 A
96 A 6.096108 -11.732630 -5.779256 A
97 A 5.457134 -11.201390 -6.276412 A
98 A 4.691331 -10.583110 -6.314463 A
99 A 4.061221 -9.917129 -6.128455 A
100 A 3.127082 -9.941031 -5.955121 A
101 A 2.759892 -9.863736 -5.070459 A
102 B 1.833238 -10.002630 -4.733876 B
103 B 1.930490 -10.563130 -5.514811 B
104 B 2.566889 -11.137850 -5.904229 B
105 B 2.332194 -11.433870 -5.015127 B
106 B 1.363581 -11.258730 -4.742497 B
107 B 0.496353 -11.745710 -4.731541 B
108 B -0.243997 -12.328230 -4.588284 B
109 A -0.963209 -12.628490 -4.014054 A
110 A -1.415491 -13.197010 -3.398801 A
111 A -1.607901 -12.851160 -2.531282 A
112 A -2.011044 -12.323970 -1.893712 A
113 A -1.059710 -12.145020 -1.956383 A
114 A -0.955084 -11.166850 -2.038388 A
115 A -5.217869 10.361510 0.884849 A
116 A -4.464327 11.039000 0.725474 A
117 A -4.768962 11.618430 1.431405 A
118 A -5.223351 12.166180 2.097901 A
119 A -6.151928 12.453320 2.065789 A
120 A -7.007232 12.283720 1.783779 A
121 B -7.834255 12.735020 1.670763 B
122 B -8.622727 12.455750 2.184377 B
123 B -8.054781 11.684290 2.084706 B
124 B -7.308377 11.189700 1.788328 B
125 B -6.598095 10.812910 1.288888 B
126 B -5.811793 11.282840 1.530649 B
127 B -5.623686 10.682980 2.270342 B
128 A -4.766343 10.266170 2.607436 A
129 A -4.083099 10.134320 1.902293 A
130 A -3.699246 10.269320 1.023170 A
131 A -3.934785 10.090340 0.072570 A
132 A -4.186642 9.958467 -0.841383 A
133 A -3.569557 10.448690 -1.344062 A
134 A 2.129533 -12.448330 0.069598 A
135 A 1.345673 -12.860510 -0.232965 A
136 A 0.419522 -13.031030 -0.008130 A
137 A -0.571083 -13.002310 -0.098065 A
138 A -1.114441 -13.266260 -0.876258 A
139 A -1.911559 13.403630 -0.611328 A
140 B -2.650670 13.321260 0.058690 B
141 B -2.559319 13.381380 1.045048 B
142 B -2.633452 -12.769580 0.929952 B
143 B -2.211579 -11.971030 0.603999 B
144 B -1.709066 -12.490820 -0.059254 B
145 B -1.690682 -13.382480 0.289084 B
146 B -0.922751 13.173000 0.405811 B
147 A -0.244750 13.547750 0.974477 A
148 A 0.737195 -13.444250 1.091075 A
149 A 1.573352 -12.987090 1.171355 A
150 A 2.200620 -13.441290 1.717606 A
151 A 2.455472 13.009270 2.365897 A
152 A 2.852744 12.213490 2.737351 A
153 A -3.960695 -1.166520 -6.192711 A
154 A -3.168010 -1.533675 -5.923800 A
155 A -2.819127 -2.292228 -6.475976 A
156 A -3.473540 -2.956484 -6.680306 A
157 A -4.359420 -3.100614 -6.349620 A
158 A -4.905050 -3.000611 -5.595742 A
159 B -5.359197 -2.300536 -5.119484 B
160 B -5.413856 -2.298959 -4.172295 B
161 B -5.234689 -3.256698 -4.180686 B
162 B -5.547211 -4.189392 -4.056326 B
163 B -5.569180 -4.908031 -3.407499 B
164 B -4.964835 -5.654882 -3.588574 B
165 B -4.434338 -6.389303 -3.832690 B
166 A -3.755860 -7.030655 -4.099739 A
167 A -3.553851 -7.890626 -4.385078 A
168 A -4.045043 -8.586031 -3.989398 A
169 A -4.147081 -9.510435 -4.297136 A
170 A -4.012981 -10.265510 -4.966109 A
171 A -3.156587 -10.661770 -5.164830 A
172 A 11.707190 -9.312561 6.448365 A
173 A 12.160910 -9.973907 5.684335 A
174 A 12.760940 -10.798690 5.576276 A
175 A 12.134150 -11.333500 5.071104 A
176 A 11.560230 -10.545850 5.026654 A
177 A 10.974330 -9.780980 5.189262 A
178 B 10.598320 -9.006336 5.556452 B
179 B 11.079890 -8.174763 5.785227 B
180 B 12.003140 -8.110491 5.409396 B
181 B 12.557940 -8.809088 5.764733 B
182 B 12.903610 -9.189437 4.942296 B
183 B 13.036500 -9.875119 4.295533 B
184 B 13.211450 -10.779040 4.126597 B
185 A 13.193810 -11.683600 3.852566 A
186 A 12.967250 -12.503630 3.473528 A
187 A 12.156900 -12.028990 3.639194 A
188 A 11.798690 -11.136220 3.779701 A
189 A 10.973270 -11.641570 3.757882 A
190 A 10.488150 -12.271140 3.213693 A
191 A -10.251490 -8.853106 0.144373 A
192 A -9.368724 -9.141147 0.274922 A
193 A -8.643004 -9.511335 0.666147 A
194 A -8.749476 -10.382520 1.044374 A
195 A -8.701124 -11.395690 1.049023 A
196 A -8.240314 -11.766570 0.315257 A
197 B -7.735401 -11.040270 -0.097087 B
198 B -8.054907 -10.281970 -0.722397 B
199 B -8.588728 -9.781370 -1.284958 B
200 B -8.232738 -9.544506 -2.113075 B
201 B -8.754519 -8.818081 -2.481115 B
202 B -9.307251 -8.581772 -3.254430 B
203 B -9.908864 -8.234537 -3.856553 B
204 A -10.021740 -7.398773 -3.437561 A
205 A -9.204980 -7.096092 -3.801441 A
206 A -8.807541 -6.815073 -4.662038 A
207 A -8.820509 -7.168799 -5.562368 A
208 A -9.071303 -8.067585 -5.298992 A
209 A -10.010670 -8.256191 -5.379291 A
210 A 6.630122 -1.861420 -4.451318 A
211 A 7.350974 -1.902165 -3.816890 A
212 A 7.837985 -1.776244 -3.031334 A
213 A 8.150836 -1.109455 -2.443137 A
214 A 7.464557 -0.755017 -1.842677 A
215 A 7.495876 -1.403769 -1.109860 A
216 B 6.687097 -1.011568 -0.744202 B
217 B 7.316486 -0.288528 -0.755087 B
218 B 7.778267 0.547238 -0.817522 B
219 B 8.338388 1.233702 -1.136785 B
220 B 9.072977 1.829583 -1.381329 B
221 B 9.493961 2.618295 -1.056128 B
222 B 8.749224 3.188881 -0.943460 B
223 A 8.047639 2.582939 -0.642335 A
224 A 7.345603 2.207185 -0.122114 A
225 A 6.536584 1.841270 0.258826 A
226 A 5.652619 1.729513 0.658531 A
227 A 5.609675 2.469093 1.213876 A
228 A 6.344711 3.103290 0.924526 A
229 A -8.107562 8.113786 1.759087 A
230 A -7.677492 7.266350 1.462832 A
231 A -6.934631 6.903899 1.898961 A
232 A -6.921840 5.915169 1.956303 A
233 A -7.176064 5.794424 1.053410 A
234 A -7.380433 5.528586 0.148930 A
235 B -8.036734 5.002707 -0.315630 B
236 B -8.622974 5.098145 -1.110358 B
237 B -9.142018 4.630181 -0.465140 B
238 B -10.032620 4.891994 -0.235021 B
239 B -10.649290 5.604822 -0.338772 B
240 B -11.424560 6.220793 -0.274897 B
241 B -11.800700 6.567522 0.545206 B
242 A -11.672600 7.174926 1.285064 A
243 A -12.402910 7.712017 0.936154 A
244 A -12.870120 7.286407 0.212043 A
245 A -13.373270 7.294135 -0.604056 A
246 A 13.430800 6.978827 -1.452967 A
247 A 13.387290 6.031269 -1.518670 A
248 A 6.623744 3.307230 7.735967 A
249 A 5.940604 3.707235 7.182263 A
250 A 5.553463 4.222806 6.445122 A
251 A 5.118965 4.216024 5.589558 A
252 A 5.484684 4.410979 4.717688 A
253 A 6.289276 4.059346 5.054239 A
254 B 6.082424 3.429761 5.743669 B
255 B 5.777566 2.885683 6.457038 B
256 B 5.952486 2.206255 7.126610 B
257 B 6.634349 1.652851 7.487730 B
258 B 7.307709 1.059694 7.149261 B
259 B 8.124607 0.516377 6.982642 B
260 B 7.910391 -0.194711 6.297449 B
261 A 7.664927 -1.106931 6.540890 A
262 A 7.415849 -1.973795 6.844421 A
263 A 6.835600 -2.469634 7.464596 A
264 A 6.353834 -3.279256 7.616414 A
265 A 6.645564 -4.132167 7.847873 A
266 A 7.275867 -3.684111 7.270084 A
267 A -12.916750 13.129210 2.735705 A
268 A -13.239000 -13.086260 2.896727 A
269 A -13.186390 -12.090600 3.070243 A
270 A 13.288210 -11.456340 2.690783 A
271 A 12.394690 -11.116980 2.798725 A
272 A 11.461910 -11.119630 2.773596 A
273 B 10.901110 -11.750870 2.335423 B
274 B 10.747490 -11.895980 1.386833 B
275 B 11.026200 -11.797820 0.484399 B
276 B 11.757390 -11.266610 0.169302 B
277 B 11.957360 -10.434290 0.556498 B
278 B 11.996040 -9.520968 0.960647 B
279 B 11.485890 -9.237373 0.182269 B
280 A 11.568410 -9.457385 -0.743551 A
281 A 11.935290 -8.512899 -0.633929 A
282 A 12.441900 -7.836356 -0.247359 A
283 A 12.683350 -7.918122 -1.154067 A
284 A 13.017490 -8.676423 -1.656880 A
285 A 12.166790 -8.994655 -1.885935 A
286 A 10.929660 8.496312 3.917584 A
287 A 11.218400 9.115106 3.214597 A
288 A 12.028210 9.309134 2.729029 A
289 A 12.081460 10.038390 3.388253 A
290 A 12.271260 10.411350 2.560838 A
291 A 12.179150 10.510900 1.609379 A
292 B 12.503420 10.766220 0.710483 B
293 B 13.331320 11.201430 0.912799 B
294 B -12.897860 10.876680 1.167981 B
295 B -12.200110 10.556870 0.581605 B
296 B -11.809690 10.931280 1.381835 B
297 B -12.096630 10.628010 2.259035 B
298 B -12.200900 9.687686 2.075832 B
299 A -12.985150 9.185123 2.295145 A
300 A 13.287150 8.847898 2.704523 A
301 A 12.644400 8.387465 3.207108 A
302 A 11.838150 7.859962 3.342276 A
303 A 10.960370 7.762471 2.928502 A
304 A 10.348670 7.873037 2.201718 A
305 A -0.620197 -4.090085 -11.770270 A
306 A -1.116397 -4.745434 -12.241370 A
307 A -1.152038 -5.667689 -12.480540 A
308 A -1.344175 -6.523335 -12.875980 A
309 A -1.056929 -6.969397 -12.086190 A
310 A -0.183958 -6.684793 -11.837070 A
311 B 0.747979 -6.708977 -11.567510 B
312 B 1.456972 -6.480741 -11.020120 B
313 B 1.361743 -5.688268 -10.471060 B
314 B 1.556087 -4.865679 -10.909120 B
315 B 1.993723 -4.054387 -11.244890 B
316 B 2.001269 -3.153105 -10.989060 B
317 B 2.298963 -2.712728 -10.208350 B
318 A 1.624175 -3.415379 -9.953978 A
319 A 0.793392 -3.845846 -10.265350 A
320 A 0.243469 -3.516833 -10.908130 A
321 A 0.056656 -2.770327 -11.503830 A
322 A -0.115178 -2.595412 -12.436510 A
323 A -0.310031 -2.282196 -13.296850 A
324 A -11.002330 7.487592 10.954070 A
325 A -11.193930 6.743765 10.411140 A
326 A -11.756550 6.864133 9.654421 A
327 A -12.547450 7.329887 9.913623 A
328 A -12.934500 8.211077 9.936945 A
329 A -13.009020 8.392093 10.874770 A
330 B -12.783100 8.744924 11.737010 B
331 B -12.502330 9.459666 12.320180 B
332 B -11.754860 9.192761 12.857020 B
333 B -10.910220 9.350499 12.413380 B
334 B -10.075550 9.826811 12.481630 B
335 B -10.066190 10.766440 12.359800 B
336 B -9.495217 10.796390 13.123240 B
337 A -8.696487 10.316170 13.299850 A
338 A -7.915649 10.678570 -13.340300 A
339 A -8.569700 11.248930 -12.909420 A
340 A -9.100653 11.717500 -13.545090 A
341 A -10.063930 11.816670 13.490420 A
342 A -10.698550 11.241990 -13.193710 A
343 A -10.676680 1.255662 -2.309376 A
344 A -11.521210 1.430158 -1.884951 A
345 A -12.211960 1.744633 -1.286880 A
346 A -13.094390 2.080661 -1.334931 A
347 A 13.066770 2.336986 -1.156590 A
348 A 13.043090 3.306669 -1.271894 A
349 B 13.229750 4.199058 -1.478346 B
350 B 12.864240 4.994201 -1.087141 B
351 B 13.205320 5.518857 -0.365108 B
352 B -13.521440 5.152903 0.417211 B
353 B -13.231780 4.911276 1.285988 B
354 B -13.491100 4.707506 2.157434 B
355 B 13.494840 4.212177 3.007871 B
356 A 13.227230 3.423861 2.602965 A
357 A 12.835630 2.685537 2.076257 A
358 A 12.530710 1.806613 1.787338 A
359 A 12.241440 1.441107 2.663455 A
360 A 11.307690 1.567411 2.349133 A
361 A 10.800280 2.167125 1.770379 A
362 A 10.001060 0.837650 8.974986 A
363 A 9.651896 0.650449 9.842946 A
364 A 9.046418 0.419549 10.583630 A
365 A 8.143927 0.255273 10.875960 A
366 A 7.402996 0.295009 10.286580 A
367 A 8.251405 0.173075 9.835484 A
368 B 8.490005 -0.330124 9.040726 B
369 B 7.895263 -0.015773 8.333011 B
370 B 7.376369 0.813174 8.370564 B
371 B 8.144619 1.145781 7.905731 B
372 B 8.826032 1.532766 7.346482 B
373 B 9.030335 2.451555 7.141525 B
374 B 8.422230 3.177465 7.007710 B
375 A 8.054253 3.777732 7.655460 A
376 A 7.542242 4.584596 7.570804 A
377 A 7.669620 5.395515 7.070353 A
378 A 7.720440 6.214065 6.562142 A
379 A 7.324910 6.884650 6.009116 A
380 A 6.539319 7.436741 5.972260 A
381 A -10.347580 -8.133059 -10.527310 A
382 A -10.670290 -7.907915 -11.422540 A
383 A -11.292850 -8.354404 -11.972070 A
384 A -11.383290 -9.324285 -11.956420 A
385 A -11.791020 -10.207840 -11.840780 A
386 A -12.470980 -9.630981 -12.270770 A
387 B -12.501700 -8.880826 -12.878200 B
388 B -12.981180 -8.341292 -13.529390 B
389 B -13.472590 -9.041253 13.124600 B
390 B 13.054740 -9.004519 -13.195320 B
391 B 13.319700 -8.830127 -12.282110 B
392 B -13.478260 -7.919981 -12.403330 B
393 B -13.419490 -7.023106 -12.711920 B
394 A -13.443800 -6.219266 -13.191990 A
395 A 12.968500 -6.126447 13.233030 A
396 A 12.489920 -6.900875 -13.531750 A
397 A 12.460330 -7.852709 -13.289380 A
398 A 12.144760 -8.523631 -12.641210 A
399 A 11.983870 -9.335094 -12.120040 A
400 A -4.119165 -0.674743 4.966840 A
401 A -4.532770 0.193528 4.792814 A
402 A -4.981351 0.759042 4.146696 A
403 A -5.619958 1.459709 4.252771 A
404 A -5.280579 2.042509 3.540127 A
405 A -4.318885 1.925792 3.478445 A
406 B -4.039517 1.760512 2.572765 B
407 B -4.010704 1.314065 1.719342 B
408 B -3.756042 0.391572 1.713482 B
409 B -3.103455 0.154170 2.444117 B
410 B -2.730123 -0.454813 3.125971 B
411 B -2.316765 -0.115183 3.928267 B
412 B -2.233782 0.691990 4.422131 B
413 A -2.643716 1.169175 5.136537 A
414 A -2.411817 1.951841 5.653279 A
415 A -3.033520 2.193719 4.947968 A
416 A -3.032604 2.888338 4.313077 A
417 A -3.912718 3.248636 4.542677 A
418 A -4.745650 2.785670 4.247078 A
419 A 7.884314 4.260291 5.663523 A
420 A 7.231745 4.654569 5.010897 A
421 A 6.612502 5.390634 4.920815 A
422 A 5.910056 5.579823 5.532371 A
423 A 6.302083 4.963069 6.180477 A
424 A 6.966917 4.288409 6.428543 A
425 B 7.450526 3.446004 6.547503 B
426 B 7.588112 2.516130 6.574265 B
427 B 7.452861 1.721605 6.043528 B
428 B 6.512986 1.794514 6.208772 B
429 B 5.554370 1.573814 6.351543 B
430 B 5.392431 1.081620 7.152486 B
431 B 4.455954 0.919606 7.230689 B
432 A 3.589078 1.240856 7.114643 A
433 A 2.944696 1.228117 6.410893 A
434 A 2.105791 1.135110 5.950116 A
435 A 1.301486 1.708101 5.970235 A
436 A 0.358217 1.855024 6.009784 A
437 A -0.285650 1.641529 6.714446 A
438 A -9.550754 1.558939 -4.826856 A
439 A -9.727506 0.823006 -5.476468 A
440 A -10.589990 0.642546 -5.827169 A
441 A -10.951030 0.802818 -6.693336 A
442 A -11.729640 0.247422 -6.714389 A
443 A -12.439870 -0.401926 -6.602644 A
444 B -11.818530 -0.724536 -5.947312 B
445 B -11.649790 -1.527390 -6.425526 B
446 B -11.939010 -2.189301 -5.845694 B
447 B -11.690710 -1.928856 -4.945213 B
448 B -10.843210 -1.840014 -4.491817 B
449 B -10.088310 -1.592877 -3.929056 B
450 B -9.767473 -1.374605 -4.799397 B
451 A -10.146140 -0.857519 -5.501017 A
452 A -10.711480 -0.577725 -6.232993 A
453 A -11.339950 -0.694616 -6.957469 A
454 A -12.047760 -1.184287 -7.422333 A
455 A -12.842050 -1.158949 -7.946261 A
456 A -13.537030 -0.586825 -8.303702 A
457 A -9.402532 8.775445 10.567430 A
458 A -10.155180 8.222142 10.401990 A
459 A -10.160380 7.254824 10.214420 A
460 A -9.711425 6.626877 10.794570 A
461 A -9.433681 6.366582 11.666240 A
462 A -8.631898 6.850286 11.929560 A
463 B -8.378509 7.765303 12.110950 B
464 B -7.926340 8.522147 11.697820 B
465 B -8.199620 9.053441 10.926870 B
466 B -8.242652 8.347161 10.279140 B
467 B -8.735368 7.813380 9.680348 B
468 B -8.865554 8.684490 9.327553 B
469 B -9.808614 8.761295 9.099874 B
470 A -10.591050 8.582492 8.590399 A
471 A -10.596330 8.416826 7.621862 A
472 A -11.034660 7.608634 7.879037 A
473 A -11.152900 6.825651 8.450934 A
474 A -11.010930 6.150047 9.099052 A
475 A -10.546460 5.298573 9.175213 A
476 A 6.111276 6.766258 -4.297243 A
477 A 6.049897 6.255695 -3.509703 A
478 A 6.977922 5.930640 -3.303543 A
479 A 7.712662 5.334559 -3.152031 A
480 A 8.496555 4.757810 -2.883340 A
481 A 9.044400 3.951492 -3.076622 A
482 B 8.591726 3.159048 -2.716579 B
483 B 7.856184 2.662076 -2.409728 B
484 B 7.331344 1.907590 -2.347692 B
485 B 7.293215 1.669894 -1.422799 B
486 B 6.598135 1.325529 -0.834323 B
487 B 6.133744 1.180533 -1.698203 B
488 B 6.416037 0.275083 -1.666027 B
489 A 5.740380 -0.009523 -2.255766 A
490 A 5.234043 0.516363 -2.912507 A
491 A 4.947752 -0.368970 -3.022103 A
492 A 4.303062 -0.835076 -2.393352 A
493 A 4.313912 -0.347698 -1.624135 A
494 A 3.615649 -0.133080 -0.935141 A
495 A -7.647439 9.477630 -3.269377 A
496 A -8.262743 8.812541 -2.991735 A
497 A -7.703030 8.245522 -2.416339 A
498 A -6.796474 8.551076 -2.474290 A
499 A -6.410173 9.144008 -3.145603 A
500 A -5.601346 9.199282 -3.643095 A
501 B -4.793616 9.332714 -3.138920 B
502 B -4.026034 9.064079 -2.631019 B
503 B -3.064737 9.235347 -2.532203 B
504 B -2.836256 10.112590 -2.225003 B
505 B -2.885115 11.073120 -2.277623 B
506 B -3.518899 11.509820 -1.695863 B
507 B -3.231438 11.535910 -0.798458 B
508 A -2.501856 11.881560 -1.319169 A
509 A -1.919600 11.457940 -1.981900 A
510 A -1.320580 11.809380 -2.682820 A
511 A -1.626155 11.734540 -3.596416 A
512 A -1.757366 10.905740 -4.057522 A
513 A -2.259288 10.767940 -4.848300 A
514 A -7.771888 4.374859 0.595827 A
515 A -8.056636 4.804231 1.401247 A
516 A -8.664581 4.691174 2.136205 A
517 A -9.582532 4.404879 2.215813 A
518 A -10.497350 4.205788 2.001069 A
519 A -11.298420 4.674457 1.692460 A
520 B -11.662920 5.426572 1.202766 B
521 B -12.514990 5.661289 0.834579 B
522 B -12.634430 6.184516 0.044908 B
523 B -12.183340 5.383053 -0.277601 B
524 B -12.343550 4.692274 0.361048 B
525 B -12.213190 3.994431 0.973951 B
526 B -12.334430 3.123716 1.355265 B
527 A -12.403610 2.458445 0.669753 A
528 A -12.745810 1.837277 0.012878 A
529 A -13.400120 1.317044 -0.443485 A
530 A 12.895800 0.767894 -0.452453 A
531 A 12.375020 0.202973 0.122514 A
532 A 12.065040 -0.111500 0.972558 A
533 A 12.089430 -5.549864 0.708391 A
534 A 12.102030 -4.599811 0.995534 A
535 A 11.565200 -3.838164 1.185099 A
536 A 11.603100 -3.989182 0.219612 A
537 A 11.090490 -4.758769 0.225457 A
538 A 10.212800 -4.363882 0.308034 A
539 B 9.566998 -3.709152 0.056476 B
540 B 8.843921 -3.198117 0.437110 B
541 B 8.488871 -2.834398 1.252329 B
542 B 8.436290 -2.381012 2.117915 B
543 B 8.804847 -2.381034 3.005506 B
544 B 9.360185 -1.592306 3.075632 B
545 B 9.857450 -0.841035 3.402567 B
546 A 10.574110 -0.233096 3.115746 A
547 A 11.437780 -0.600238 2.878307 A
548 A 12.369610 -0.893158 2.741074 A
549 A 13.190660 -0.412150 2.917615 A
550 A 12.819530 0.430062 2.656395 A
551 A 12.455960 0.531404 1.791409 A
552 A 8.013992 4.283176 2.881930 A
553 A 8.613011 4.917338 2.560978 A
554 A 9.079083 5.577200 3.178272 A
555 A 9.054905 5.904497 4.040181 A
556 A 8.350825 5.416558 4.521201 A
557 A 7.591380 5.020864 4.041202 A
558 B 7.167776 4.238076 3.754908 B
559 B 7.807152 3.526370 3.719787 B
560 B 8.540062 3.166823 3.199690 B
561 B 8.761782 2.230109 3.217112 B
562 B 9.699945 2.223927 2.974942 B
563 B 10.549250 2.715165 3.004333 B
564 B 11.184150 3.172801 2.439850 B
565 A 11.001220 4.081290 2.174881 A
566 A 10.425860 4.752696 2.573268 A
567 A 10.316800 5.701683 2.678232 A
568 A 10.851840 6.496771 2.775811 A
569 A 11.721840 6.944850 2.791029 A
570 A 11.985630 7.694472 2.234537 A
571 A -12.851440 -9.054276 3.168143 A
572 A -12.257060 -8.721158 2.505980 A
573 A -12.111520 -8.027766 1.862617 A
574 A -12.722280 -7.315137 1.935786 A
575 A -13.246270 -6.510545 1.655012 A
576 A -13.487570 -6.204618 0.800567 A
577 B -12.533020 -6.154294 0.815518 B
578 B -12.195070 -6.108189 1.708284 B
579 B -11.639770 -6.750991 2.151871 B
580 B -12.257310 -6.669913 2.869861 B
581 B -13.158520 -6.324401 2.969432 B
582 B 13.363410 -5.614097 2.702198 B
583 B 12.790440 -5.252427 2.030370 B
584 A 13.168170 -4.629453 1.412960 A
585 A -13.132760 -5.020591 1.073660 A
586 A -12.444100 -5.144598 0.376252 A
587 A -12.049080 -5.259987 -0.494167 A
588 A -12.432810 -5.883807 -1.103283 A
589 A -12.372180 -6.598454 -0.436889 A
590 A -7.160215 1.962181 4.155834 A
591 A -7.169318 1.067273 3.797204 A
592 A -7.736581 0.240110 3.698170 A
593 A -8.545490 0.465262 3.282581 A
594 A -9.107794 1.186321 3.012012 A
595 A -9.494897 2.070665 3.003972 A
596 B -10.362150 2.357388 3.391512 B
597 B -10.805970 1.990085 4.152193 B
598 B -11.542780 1.345545 4.261615 B
599 B -11.911930 0.487167 4.098157 B
600 B -11.762590 -0.134823 3.380224 B
601 B -11.781410 -0.483196 2.460856 B
602 B -12.039580 -0.758439 1.587018 B
603 A -12.569550 -0.105008 1.961168 A
604 A -13.449490 0.268621 1.970444 A
605 A -13.499080 1.194921 2.316785 A
606 A -12.927610 1.372495 1.548273 A
607 A -12.005730 1.065158 1.547778 A
608 A -11.445770 0.301913 1.694431 A
609 A -12.983430 2.288627 12.053690 A
610 A -12.436540 3.032768 11.769750 A
611 A -12.264160 3.762982 11.163920 A
612 A -12.484020 4.138710 10.310010 A
613 A -12.860280 4.080241 9.424426 A
614 A -12.862120 3.901912 8.472348 A
615 B -13.384680 3.840286 7.634130 B
616 B -13.119610 3.672434 6.725055 B
617 B -12.440640 3.099489 7.100988 B
618 B -11.665960 2.603904 7.379500 B
619 B -11.067810 1.949962 7.676327 B
620 B -11.614390 2.242732 8.396633 B
621 B -12.581410 2.265006 8.252133 B
622 A -13.185920 2.051605 7.547749 A
623 A -12.541620 1.449761 7.128866 A
624 A -12.498400 0.623876 6.622191 A
625 A -12.156240 0.222828 7.446214 A
626 A -11.441990 0.338956 8.106578 A
627 A -10.776460 -0.244586 8.575559 A
628 A -8.289013 4.275578 -2.575247 A
629 A -8.784455 4.426030 -3.384831 A
630 A -9.418405 5.027219 -3.706547 A
631 A -9.724652 5.838582 -4.225199 A
632 A -9.215177 6.676569 -4.245360 A
633 A -8.240295 6.720859 -4.147614 A
634 B -8.151608 6.289289 -5.002106 B
635 B -8.564744 5.685481 -5.573880 B
636 B -9.225942 5.341588 -6.169015 B
637 B -9.343686 4.927042 -7.022913 B
638 B -10.036060 4.834552 -7.704873 B
639 B -10.077250 4.913885 -8.646545 B
640 B -9.423670 5.404016 -9.129840 B
641 A -8.694931 5.540655 -8.535076 A
642 A -8.168061 4.805468 -8.903892 A
643 A -8.234370 4.326705 -9.736770 A
644 A -8.189323 3.410631 -10.123540 A
645 A -8.680078 3.509238 -10.879030 A
646 A -9.669176 3.353493 -10.789420 A
647 A 12.298820 3.223436 12.197400 A
648 A 12.408720 2.698348 12.989190 A
649 A 13.092370 2.231267 13.517580 A
650 A 13.282700 1.370769 13.158750 A
651 A 12.663240 0.806043 -13.498760 A
652 A 12.918470 0.160319 12.919090 A
653 B 13.309570 -0.616225 12.505550 B
654 B -13.092170 -0.952047 11.922020 B
655 B -12.633810 -1.425346 11.258970 B
656 B -12.568000 -1.921154 12.082700 B
657 B -12.176040 -1.538459 12.849110 B
658 B -12.019140 -1.296105 -13.354220 B
659 B -11.853620 -0.922237 -12.489840 B
660 A -11.571070 -0.054020 -12.273700 A
661 A -10.876780 0.511454 -11.963800 A
662 A -10.546040 1.212506 -11.400980 A
663 A -10.980400 2.060977 -11.377710 A
664 A -11.862730 1.866235 -11.633390 A
665 A -12.420260 1.256415 -12.106500 A
666 A 0.737478 -7.556980 -8.517203 A
667 A 0.784951 -7.784904 -9.473116 A
668 A 1.216606 -8.281415 -10.203680 A
669 A 0.786943 -8.816845 -10.840100 A
670 A -0.050638 -9.320289 -11.132610 A
671 A -0.597143 -10.157210 -11.197340 A
672 B -0.303673 -10.397830 -10.368820 B
673 B -0.989918 -10.971260 -10.716230 B
674 B -0.275170 -11.572110 -10.972420 B
675 B 0.509764 -11.190610 -11.271870 B
676 B 1.466289 -10.945280 -11.610060 B
677 B 2.065682 -10.421220 -11.094660 B
678 B 2.315840 -9.542645 -11.160310 B
679 A 2.031577 -8.586837 -11.054380 A
680 A 2.342280 -8.396539 -10.167270 A
681 A 3.093905 -7.986291 -9.779099 A
682 A 3.324197 -8.236208 -8.896045 A
683 A 2.751031 -7.713698 -8.353709 A
684 A 2.793552 -6.760458 -8.461696 A
685 A 2.528741 13.180640 -9.489971 A
686 A 1.721089 12.695620 -9.817897 A
687 A 1.196117 12.617270 -10.694770 A
688 A 0.415241 12.141460 -11.045470 A
689 A 1.150644 11.444380 -10.993350 A
690 A 1.999193 11.672470 -11.379390 A
691 B 2.879814 11.400010 -11.074780 B
692 B 3.676328 11.235720 -10.552940 B
693 B 4.496881 11.539530 -10.199110 B
694 B 5.258322 11.342060 -9.657647 B
695 B 5.767522 11.585720 -8.877789 B
696 B 5.746151 12.096360 -8.063092 B
697 B 5.679672 12.390690 -7.162003 B
698 A 5.263031 12.468300 -6.286669 A
699 A 5.207778 11.808490 -5.645339 A
700 A 6.109147 11.792550 -5.350742 A
701 A 7.068158 11.833150 -5.437842 A
702 A 6.663699 12.734680 -5.385461 A
703 A 5.836182 13.197880 -5.153334 A
704 A 2.317224 3.106864 -9.693161 A
705 A 2.464714 3.868282 -9.088324 A
706 A 2.006822 4.261919 -8.308960 A
707 A 1.535195 4.972791 -8.741899 A
708 A 1.538191 5.417112 -9.581761 A
709 A 1.698614 6.023378 -10.300350 A
710 B 2.061611 5.360005 -10.870400 B
711 B 2.191525 4.570342 -11.384990 B
712 B 3.085029 4.263607 -11.572120 B
713 B 3.449033 5.079432 -11.894720 B
714 B 4.054599 5.689385 -12.305870 B
715 B 4.710298 6.156713 -12.804700 B
716 B 5.250774 6.431154 -13.540830 B
717 A 6.020636 6.962010 13.313130 A
718 A 6.767258 7.417186 12.923310 A
719 A 7.242472 8.112734 13.373000 A
720 A 8.082315 8.221990 -13.248590 A
721 A 8.592067 7.481643 -12.885590 A
722 A 8.844004 6.892276 -12.145990 A
723 A -9.292515 -0.124499 -5.436294 A
724 A -8.666965 0.615135 -5.318753 A
725 A -7.694321 0.624647 -5.207563 A
726 A -7.468650 -0.201752 -4.765580 A
727 A -7.145345 -0.996951 -5.183743 A
728 A -6.658433 -1.467468 -5.872360 A
729 B -6.629462 -1.884490 -6.751373 B
730 B -6.830459 -2.321239 -7.651995 B
731 B -6.420847 -2.425353 -8.557243 B
732 B -7.222757 -2.874910 -8.740458 B
733 B -8.078442 -3.393606 -8.627274 B
734 B -8.879381 -3.593782 -9.218505 B
735 B -9.311884 -2.987052 -8.614473 B
736 A -9.470599 -2.094387 -8.156304 A
737 A -9.693791 -1.160998 -7.979867 A
738 A -9.921124 -0.841561 -7.029388 A
739 A -10.234320 -1.684693 -6.645622 A
740 A -9.374375 -2.126202 -6.815773 A
741 A -8.525104 -2.447290 -7.070063 A
742 A -6.411107 -8.465753 4.542964 A
743 A -6.860607 -7.704139 4.867393 A
744 A -6.549650 -6.857439 5.125217 A
745 A -5.736058 -6.859146 5.651206 A
746 A -4.999046 -7.142947 6.136332 A
747 A -5.672965 -6.730253 6.827878 A
748 B -5.971895 -5.795948 7.045028 B
749 B -5.286595 -5.471741 6.431623 B
750 B -6.112183 -5.190388 6.012205 B
751 B -6.899384 -5.647189 5.654580 B
752 B -6.684385 -6.126367 6.525933 B
753 B -7.480293 -5.486767 6.908987 B
754 B -7.241320 -6.296526 7.478821 B
755 A -7.592957 -7.081882 6.914578 A
756 A -7.043176 -7.786953 6.832959 A
757 A -7.660892 -8.288422 6.332671 A
758 A -8.384537 -8.632903 5.861978 A
759 A -8.268034 -9.624810 5.587542 A
760 A -7.785304 -10.252140 4.992050 A
761 A 3.876474 1.279167 5.136610 A
762 A 4.034242 0.357656 5.436072 A
763 A 4.583009 0.161394 4.659797 A
764 A 5.432243 0.188415 4.267231 A
765 A 6.324018 -0.144245 4.454558 A
766 A 7.013108 0.052642 3.812817 A
767 B 7.619754 0.801630 3.870997 B
768 B 7.716329 1.235133 2.996897 B
769 B 7.190289 0.562525 2.558436 B
770 B 6.272491 0.426780 2.256464 B
771 B 5.457254 0.807581 2.554713 B
772 B 4.507794 0.923248 2.856070 B
773 B 3.672939 1.077244 3.290691 B
774 A 3.253440 0.839455 4.092741 A
775 A 2.816551 0.314561 4.782287 A
776 A 2.225108 -0.085996 5.439324 A
777 A 1.824031 0.158834 6.270607 A
778 A 2.193438 0.445593 7.136252 A
779 A 2.701603 1.042892 7.683441 A
780 A -9.001378 3.635699 0.831196 A
781 A -8.393626 3.679416 1.538449 A
782 A -7.842547 3.963980 2.265268 A
783 A -7.822306 4.364555 3.203656 A
784 A -8.127749 3.859698 3.922123 A
785 A -8.570016 3.924061 4.737512 A
786 B -9.376936 3.472062 4.960629 B
787 B -10.265930 3.202709 4.629375 B
788 B -11.202910 3.281439 4.379655 B
789 B -12.117670 3.045447 4.408156 B
790 B -13.044550 2.776521 4.531969 B
791 B 13.489290 2.266632 3.892126 B
792 B -13.011720 1.639768 3.524540 B
793 A -12.101000 1.489746 3.309298 A
794 A -11.207590 1.106974 3.267979 A
795 A -10.328590 1.004017 3.608073 A
796 A -9.775664 1.669341 4.030151 A
797 A -9.086208 2.335274 3.984324 A
798 A -8.318690 2.792858 3.610068 A
799 A 10.704080 -6.332646 -8.023457 A
800 A 10.812060 -5.907145 -8.848385 A
801 A 10.302100 -5.714289 -9.639813 A
802 A 9.650366 -5.308565 -10.200340 A
803 A 8.870956 -5.273559 -10.754810 A
804 A 8.850739 -4.999497 -11.675210 A
805 B 9.234601 -4.098367 -11.824740 B
806 B 9.211161 -3.618681 -12.640710 B
807 B 9.028451 -3.265244 -13.506440 B
808 B 8.545968 -2.965142 12.777470 B
809 B 8.449217 -3.807046 12.273250 B
810 B 8.419629 -4.532572 11.619450 B
811 B 9.060850 -5.278485 11.628010 B
812 A 8.837789 -6.110141 12.084420 A
813 A 9.456451 -6.706183 11.648670 A
814 A 10.028400 -7.342212 12.040070 A
815 A 10.496740 -7.357448 12.901980 A
816 A 11.166280 -6.744135 13.312620 A
817 A 11.434110 -5.816613 13.317540 A
818 A -9.624253 7.839749 -9.829938 A
819 A -9.879091 7.529142 -8.984359 A
820 A -9.592124 6.725538 -8.525640 A
821 A -8.765924 6.865497 -7.983002 A
822 A -8.394099 7.393397 -7.218335 A
823 A -8.925670 7.996141 -6.717490 A
824 B -9.816122 8.072215 -6.475268 B
825 B -9.650199 7.243297 -6.961075 B
826 B -9.248698 6.930172 -6.137621 B
827 B -8.857708 7.189577 -5.341236 B
828 B -8.794170 7.834436 -4.648974 B
829 B -9.634291 8.203464 -4.429978 B
830 B -10.394430 8.554110 -4.981567 B
831 A -11.091070 8.321020 -4.349530 A
832 A -11.564160 7.711848 -3.749491 A
833 A -12.303910 7.125052 -3.869503 A
834 A -12.856730 7.684279 -4.445395 A
835 A -12.715040 8.380616 -5.186089 A
836 A -12.263410 8.743341 -5.944705 A
837 A 9.253506 -6.092676 -8.905390 A
838 A 9.668015 -5.714848 -8.125417 A
839 A 9.171529 -4.928590 -8.364759 A
840 A 8.320963 -4.473446 -8.460464 A
841 A 7.786033 -3.867092 -8.987864 A
842 A 7.467103 -3.814063 -9.861331 A
843 B 6.773055 -4.344996 -10.237450 B
844 B 6.586956 -5.132026 -9.704182 B
845 B 6.259171 -6.031903 -9.432692 B
846 B 6.659451 -6.821962 -9.020374 B
847 B 6.151590 -7.583054 -9.282231 B
848 B 6.021607 -8.249634 -9.967184 B
849 B 6.169616 -7.622698 -10.667560 B
850 A 6.191239 -6.805068 -11.185710 A
851 A 7.053238 -6.354837 -11.302270 A
852 A 7.617733 -6.864949 -10.727670 A
853 A 8.210074 -7.136650 -10.004630 A
854 A 8.343664 -6.552464 -9.242132 A
855 A 8.068105 -5.636830 -9.112001 A
856 A -12.228600 -12.721130 7.288951 A
857 A -12.802250 -13.080690 7.989428 A
858 A -13.140680 13.332130 8.574677 A
859 A 13.309270 12.682730 8.298016 A
860 A 13.068420 11.858160 7.872039 A
861 A 12.892330 10.926260 7.686792 A
862 B 12.145510 10.460790 8.124315 B
863 B 11.835410 10.156560 7.266280 B
864 B 11.173050 10.086660 6.534787 B
865 B 10.982680 10.239150 5.636955 B
866 B 10.604850 11.028540 5.199112 B
867 B 11.093340 11.487720 4.505118 B
868 B 11.752470 12.161340 4.417455 B
869 A 12.675370 12.033060 4.411082 A
870 A 13.304720 12.333110 5.091804 A
871 A 13.418370 12.823080 5.922145 A
872 A 13.495700 13.378560 6.727538 A
873 A -13.087110 12.764400 7.139285 A
874 A -12.643340 12.235190 7.778069 A
875 A 11.654270 -12.800360 -4.642469 A
876 A 11.672930 -11.897560 -4.322626 A
877 A 12.136030 -11.134760 -4.661809 A
878 A 12.989620 -11.356720 -5.050092 A
879 A 13.033940 -12.131120 -5.637692 A
880 A 12.614570 -12.918750 -6.024800 A
881 B 11.727940 -13.307380 -5.902495 B
882 B 11.242900 -12.491830 -5.762053 B
883 B 10.793800 -12.004880 -5.067467 B
884 B 9.942601 -11.592430 -4.897785 B
885 B 9.244575 -11.690090 -4.238435 B
886 B 8.767398 -12.219660 -3.635538 B
887 B 8.504453 -12.356440 -2.713457 B
888 A 8.170020 -11.806260 -1.997614 A
889 A 7.384569 -11.375250 -1.598910 A
890 A 6.793709 -11.343260 -0.841459 A
891 A 6.944021 -12.085130 -0.246406 A
892 A 7.856956 -11.861740 -0.017133 A
893 A 8.211819 -11.726890 -0.893968 A
894 A -4.646282 11.600930 -12.771590 A
895 A -3.839840 11.304490 -12.368020 A
896 A -3.809290 10.627650 -11.678370 A
897 A -3.618258 9.747684 -11.946590 A
898 A -3.801288 9.147518 -11.251410 A
899 A -2.826550 9.282796 -11.293580 A
900 B -1.967376 9.647081 -11.114780 B
901 B -1.547449 10.358810 -11.616270 B
902 B -1.043311 10.357790 -12.450270 B
903 B -0.593449 9.991876 -13.211280 B
904 B -0.712641 10.597250 13.136440 B
905 B -0.946131 10.205000 12.292180 B
906 B -0.670053 9.330494 12.068250 B
907 A -0.461404 8.432457 12.282520 A
908 A -0.039711 8.198677 13.097560 A
909 A 0.663538 8.198023 -13.348690 A
910 A 0.985599 8.983957 13.296700 A
911 A 0.680574 9.879786 13.422880 A
912 A 0.563084 10.714670 -13.236200 A
913 A 7.878881 3.317937 -8.502894 A
914 A 7.919312 4.013499 -9.146017 A
915 A 7.506168 4.790893 -9.568490 A
916 A 7.861926 5.411801 -10.205600 A
917 A 8.768517 5.657579 -10.326010 A
918 A 9.465660 5.357145 -9.722114 A
919 B 9.566808 4.418121 -9.736669 B
920 B 9.976305 3.645417 -9.397882 B
921 B 10.869890 3.327842 -9.487259 B
922 B 11.027490 2.393129 -9.551235 B
923 B 10.958140 1.814969 -8.805259 B
924 B 10.025550 1.761084 -8.582379 B
925 B 9.184237 1.587173 -9.039990 B
926 A 8.394536 1.218587 -9.442601 A
927 A 7.723364 1.551633 -8.849662 A
928 A 6.877734 1.654874 -8.480620 A
929 A 6.698375 1.965924 -9.364949 A
930 A 7.279683 2.489234 -9.933213 A
931 A 7.788435 3.238952 -10.338060 A
932 A 4.785265 -4.928696 -1.735735 A
933 A 4.412817 -4.316239 -2.369268 A
934 A 4.529888 -3.702379 -3.051183 A
935 A 4.974058 -3.098182 -3.702024 A
936 A 4.557284 -2.227425 -3.368152 A
937 A 4.014215 -2.003653 -2.644096 A
938 B 3.646864 -1.657210 -1.828172 B
939 B 3.125247 -0.916805 -1.529726 B
940 B 2.328763 -1.417514 -1.763208 B
941 B 2.067856 -2.293276 -2.000644 B
942 B 2.057451 -2.978241 -2.669362 B
943 B 2.243942 -3.272555 -3.556952 B
944 B 2.374983 -3.844071 -4.307472 B
945 A 2.623619 -4.647782 -4.789974 A
946 A 3.379339 -5.155464 -5.093992 A
947 A 3.622750 -5.812396 -4.400342 A
948 A 3.069531 -5.149026 -3.917487 A
949 A 3.653298 -4.527088 -3.545426 A
950 A 3.343093 -3.702915 -3.965160 A
951 A -6.125084 -4.611003 7.456808 A
952 A -6.530788 -4.890259 8.273508 A
953 A -6.865874 -5.598428 8.842713 A
954 A -6.835669 -5.374046 9.782999 A
955 A -6.830227 -4.414651 9.884351 A
956 A -6.875694 -4.055262 8.994719 A
957 B -6.920599 -3.147480 8.701803 B
958 B -6.351472 -2.495986 9.053675 B
959 B -5.450998 -2.736151 8.828650 B
960 B -4.861157 -3.333210 8.354162 B
961 B -3.980633 -3.435486 7.983803 B
962 B -3.049604 -3.265719 7.901032 B
963 B -2.969939 -2.856721 7.027518 B
964 A -2.852504 -2.061973 6.474309 A
965 A -3.273312 -1.210225 6.643866 A
966 A -3.142051 -0.376989 7.108647 A
967 A -2.474699 -0.483718 7.788624 A
968 A -1.811445 -0.591493 8.447587 A
969 A -1.193381 0.036367 8.066561 A
970 A -0.393768 1.558036 -12.816680 A
971 A -1.288074 1.654973 -13.164050 A
972 A -2.268341 1.652182 -13.222210 A
973 A -2.989312 1.035642 -13.392150 A
974 A -3.266714 1.585954 12.923960 A
975 A -2.479436 2.117249 12.765390 A
976 B -1.847704 2.516066 13.431500 B
977 B -2.038056 2.836000 -12.780490 B
978 B -2.847084 2.716649 -12.319320 B
979 B -3.753503 2.845121 -12.024880 B
980 B -4.538591 3.242378 -11.669390 B
981 B -5.321549 3.691720 -11.377200 B
982 B -6.268713 3.880923 -11.170770 B
983 A -6.601073 3.728457 -12.038120 A
984 A -5.919552 3.221571 -12.513730 A
985 A -5.024173 3.149727 -12.788550 A
986 A -4.955061 2.355673 -13.305260 A
987 A -5.207050 1.597203 13.255110 A
988 A -5.516257 1.482836 12.365960 A
989 A 5.744033 -7.673776 12.564000 A
990 A 5.192805 -7.716293 11.775320 A
991 A 4.943100 -8.250340 11.021570 A
992 A 5.089023 -9.199636 11.132460 A
993 A 4.531231 -9.351892 10.361840 A
994 A 4.460523 -8.662311 9.702243 A
995 B 4.095316 -7.779002 9.688122 B
996 B 4.082107 -7.624063 10.622760 B
997 B 3.822664 -8.366893 11.153950 B
998 B 4.287846 -8.750975 11.929500 B
999 B 4.485183 -8.532841 12.850060 B
1000 B 4.915522 -7.748813 13.190160 B
1001 B 5.286536 -6.844311 13.210690 B
1002 A 5.214162 -6.144922 12.536080 A
1003 A 5.513893 -5.194820 12.407610 A
1004 A 5.282064 -4.345620 12.010100 A
1005 A 4.895644 -3.535780 11.651810 A
1006 A 5.124498 -2.662997 11.340440 A
1007 A 5.999980 -2.280480 11.553790 A
1008 A 4.285161 -11.298630 6.747851 A
1009 A 4.563632 -11.215070 5.824634 A
1010 A 4.700064 -10.814320 4.958772 A
1011 A 4.314564 -10.533970 4.148868 A
1012 A 3.733412 -9.907278 4.646594 A
1013 A 4.293840 -9.544408 5.306180 A
1014 B 4.581383 -8.926904 5.990532 B
1015 B 4.897782 -8.341231 6.681147 B
1016 B 5.510333 -9.083685 6.940426 B
1017 B 5.164448 -9.986776 6.991998 B
1018 B 4.529652 -10.520690 7.489636 B
1019 B 3.583394 -10.633160 7.625193 B
1020 B 3.134846 -10.733230 6.768126 B
1021 A 2.828027 -10.684120 5.879523 A
1022 A 2.774310 -10.661330 4.919100 A
1023 A 2.230835 -11.223740 4.326328 A
1024 A 1.522481 -11.432580 4.941698 A
1025 A 1.257140 -11.548870 5.840127 A
1026 A 1.029228 -11.308290 6.758392 A
1027 A 0.861303 -4.769253 -2.839385 A
1028 A 1.424847 -4.385843 -2.158894 A
1029 A 1.758654 -5.130200 -1.650245 A
1030 A 1.819912 -6.116885 -1.714280 A
1031 A 2.382179 -6.358599 -2.528158 A
1032 A 2.395535 -6.003962 -3.436821 A
1033 B 1.930834 -5.150032 -3.692881 B
1034 B 1.635074 -4.253197 -3.596929 B
1035 B 0.872526 -3.790894 -3.355649 B
1036 B 0.088452 -3.220875 -3.243990 B
1037 B -0.261235 -2.330842 -2.900638 B
1038 B -0.544281 -1.862432 -2.088640 B
1039 B 0.293744 -1.832454 -1.550808 B
1040 A 0.955473 -2.549720 -1.447682 A
1041 A 0.939535 -3.536923 -1.401137 A
1042 A 0.356776 -4.142385 -1.852284 A
1043 A -0.154177 -4.338213 -2.645883 A
1044 A -0.483650 -4.274220 -3.539408 A
1045 A -0.102016 -4.172762 -4.427182 A
1046 A -0.357433 2.042142 9.041735 A
1047 A -0.801907 1.166947 9.031493 A
1048 A -0.776849 0.255329 9.243186 A
1049 A -0.986552 -0.396721 9.879186 A
1050 A -1.010061 -1.265638 10.299500 A
1051 A -1.026930 -2.209743 10.408880 A
1052 B -1.308510 -3.062319 10.648810 B
1053 B -1.316839 -4.060927 10.837120 B
1054 B -0.797086 -4.822566 10.659190 B
1055 B -0.251671 -5.602525 10.816760 B
1056 B 0.236317 -6.063352 10.093490 B
1057 B -0.039376 -5.655481 9.226468 B
1058 B -0.810366 -5.417764 9.706110 B
1059 A -1.829874 -5.415919 9.787253 A
1060 A -2.549518 -4.775355 9.800447 A
1061 A -2.579971 -3.902955 10.338760 A
1062 A -1.762968 -3.884831 9.817812 A
1063 A -1.034689 -3.783700 9.209243 A
1064 A -0.397130 -4.391381 9.531665 A
1065 A -6.128172 9.400932 -1.498262 A
1066 A -5.995606 8.882137 -0.702402 A
1067 A -6.049820 7.952204 -0.730915 A
1068 A -7.038290 7.870193 -0.511503 A
1069 A -7.627324 8.612113 -0.499238 A
1070 A -8.137863 8.982615 0.283558 A
1071 B -7.660123 9.764986 0.105974 B
1072 B -6.808405 9.448316 0.481986 B
1073 B -5.998940 9.273034 0.955703 B
1074 B -5.645131 9.118369 1.799233 B
1075 B -5.592169 8.901404 2.731631 B
1076 B -6.100924 9.167581 3.482839 B
1077 B -6.544683 10.027910 3.612526 B
1078 A -6.358419 10.632180 4.328999 A
1079 A -5.529247 10.852340 4.712823 A
1080 A -5.917533 10.168130 5.252491 A
1081 A -6.194602 9.450006 5.803419 A
1082 A -5.694213 9.187556 6.588370 A
1083 A -4.989946 9.561385 6.057415 A
1084 A -1.677194 7.451860 -2.264844 A
1085 A -2.252170 7.263039 -1.533244 A
1086 A -2.837245 6.868369 -0.925964 A
1087 A -2.719415 7.729654 -0.606081 A
1088 A -1.871988 8.163575 -0.822086 A
1089 A -0.965037 8.288473 -1.146386 A
1090 B -0.728058 8.360245 -2.076945 B
1091 B -0.888647 9.292023 -2.083402 B
1092 B -1.478576 9.922693 -1.657237 B
1093 B -1.409078 10.183010 -2.537512 B
1094 B -1.003179 10.287170 -3.403739 B
1095 B -1.120379 9.295675 -3.478914 B
1096 B -1.641946 8.485111 -3.300455 B
1097 A -2.539492 8.147914 -2.977066 A
1098 A -3.143363 7.968440 -2.247304 A
1099 A -3.685803 7.593187 -1.591939 A
1100 A -3.754252 8.437965 -1.126309 A
1101 A -3.288235 9.292637 -0.998941 A
1102 A -2.709599 10.046350 -0.873350 A
1103 A -11.540430 -0.486338 6.126850 A
1104 A -11.189220 0.112091 6.795201 A
1105 A -10.803750 0.907332 7.202890 A
1106 A -9.926543 1.295013 7.163657 A
1107 A -9.080322 1.354909 7.541020 A
1108 A -9.131441 2.170315 8.232554 A
1109 B -9.550220 2.909186 8.682311 B
1110 B -9.781015 2.046953 9.171150 B
1111 B -9.473851 1.350786 9.748671 B
1112 B -8.998807 0.695458 10.353340 B
1113 B -8.106873 0.604831 10.601740 B
1114 B -7.361372 0.708419 10.002540 B
1115 B -7.870327 0.934852 9.261689 B
1116 A -7.898112 1.607283 8.590689 A
1117 A -8.281769 2.402963 8.994896 A
1118 A -7.825865 3.267078 8.989120 A
1119 A -7.265702 3.958612 8.655581 A
1120 A -6.767748 3.908563 7.857983 A
1121 A -6.082469 4.197480 7.263390 A
1122 A 12.554990 -1.311498 -2.724327 A
1123 A 12.091240 -0.483304 -2.672689 A
1124 A 12.043050 0.441635 -2.753748 A
1125 A 11.250650 0.983157 -2.502566 A
1126 A 10.299450 1.141584 -2.465693 A
1127 A 9.735086 0.887841 -3.248688 A
1128 B 9.658120 0.480086 -4.114784 B
1129 B 10.000610 -0.392167 -4.173357 B
1130 B 9.742417 -1.284755 -4.111531 B
1131 B 10.125230 -1.867285 -3.434359 B
1132 B 10.768630 -1.934650 -2.760168 B
1133 B 11.490280 -2.020883 -2.120795 B
1134 B 12.066610 -2.759934 -1.936807 B
1135 A 11.747780 -3.172061 -2.696872 A
1136 A 11.470870 -2.756153 -3.532336 A
1137 A 11.729480 -1.857000 -3.839664 A
1138 A 12.488700 -1.355673 -4.234122 A
1139 A 12.531640 -1.594484 -5.192383 A
1140 A 12.603850 -1.443696 -6.150276 A
1141 A -13.276760 -7.730412 -0.482043 A
1142 A 13.290430 -6.970737 -0.230574 A
1143 A 12.554070 -6.638823 0.300747 A
1144 A 12.951780 -5.916404 -0.179335 A
1145 A 13.323040 -5.320555 -0.830149 A
1146 A -13.247710 -4.543633 -0.992067 A
1147 B -13.320920 -3.628917 -1.262606 B
1148 B -13.003120 -2.807935 -0.864251 B
1149 B -12.357940 -2.648022 -0.176748 B
1150 B -11.543390 -3.084706 0.076624 B
1151 B -10.914590 -2.929314 0.790221 B
1152 B -10.011290 -3.026497 1.016728 B
1153 B -9.417422 -3.140899 0.275887 B
1154 A -9.737080 -3.441320 -0.564464 A
1155 A -10.522460 -3.913137 -0.842441 A
1156 A -11.429720 -4.258793 -0.812549 A
1157 A -12.331950 -4.005817 -0.572534 A
1158 A -12.960360 -3.813561 0.139493 A
1159 A -12.620590 -3.719254 1.030279 A
1160 A 5.906931 2.254748 11.929040 A
1161 A 5.470000 3.062441 11.614750 A
1162 A 5.664500 3.502001 12.427160 A
1163 A 4.977304 4.072414 12.790690 A
1164 A 4.717738 4.967345 13.084710 A
1165 A 4.204234 4.764770 -13.243990 A
1166 B 3.329009 4.580410 -12.913140 B
1167 B 2.936224 3.761010 -12.532620 B
1168 B 2.500313 2.880766 -12.610090 B
1169 B 2.196233 2.114945 -13.103880 B
1170 B 2.945735 1.508441 -12.972810 B
1171 B 3.830353 1.770453 -13.191620 B
1172 B 4.717981 2.068416 -13.344360 B
1173 A 4.369174 2.925569 -13.205590 A
1174 A 4.212969 2.436469 -12.357210 A
1175 A 3.898027 2.486227 -11.437410 A
1176 A 4.256047 3.315208 -11.159010 A
1177 A 4.290466 3.950528 -11.867910 A
1178 A 5.181394 4.361517 -12.131740 A
1179 A -7.435534 6.164558 -11.945620 A
1180 A -8.156246 6.790664 -11.897700 A
1181 A -8.452476 5.956433 -11.471260 A
1182 A -8.039449 5.270624 -12.008650 A
1183 A -8.147088 4.529747 -12.608040 A
1184 A -9.059004 4.727340 -12.900080 A
1185 B -9.821663 5.119149 -12.524040 B
1186 B -10.476150 5.751180 -12.201980 B
1187 B -9.563275 5.996542 -12.102480 B
1188 B -8.737152 6.048208 -12.580680 B
1189 B -9.440208 6.335712 -13.142330 B
1190 B -9.193480 7.142963 -12.750940 B
1191 B -9.037925 7.920077 -12.274730 B
1192 A -9.167636 8.773820 -11.821310 A
1193 A -8.834387 9.239722 -11.011900 A
1194 A -8.683399 9.295039 -10.064040 A
1195 A -9.282789 8.961523 -9.381413 A
1196 A -10.049650 8.794843 -8.855259 A
1197 A -10.915030 8.933259 -8.473613 A
1198 A -6.901907 2.160796 12.512220 A
1199 A -6.616579 3.017462 12.957920 A
1200 A -6.441437 3.805600 13.430200 A
1201 A -6.942552 4.408301 -13.114520 A
1202 A -6.765561 4.836310 -12.291800 A
1203 A -5.927043 4.773100 -11.875440 A
1204 B -5.350319 4.863786 -11.128840 B
1205 B -4.515786 5.302005 -11.431910 B
1206 B -3.638306 5.415586 -10.996110 B
1207 B -2.657138 5.439096 -10.867480 B
1208 B -2.329847 5.702602 -9.934899 B
1209 B -1.410847 5.498318 -9.666855 B
1210 B -0.752912 5.713216 -10.314070 B
1211 A -1.322420 5.301563 -10.934800 A
1212 A -1.887990 5.515001 -11.672500 A
1213 A -2.150910 4.597107 -11.839400 A
1214 A -1.823777 3.710932 -11.996040 A
1215 A -1.217490 3.582550 -12.730550 A
1216 A -1.192993 4.543056 -12.700140 A
1217 A -6.336384 11.577770 2.713438 A
1218 A -5.568705 11.412870 3.290937 A
1219 A -5.120596 12.231900 3.181142 A
1220 A -5.819190 12.518310 3.649723 A
1221 A -6.676192 13.094310 3.356075 A
1222 A -7.598071 12.897260 3.791501 A
1223 B -8.329661 13.476320 3.595059 B
1224 B -8.706809 -12.808930 3.501642 B
1225 B -9.574186 -12.630550 3.805133 B
1226 B -9.750943 -12.750170 2.848532 B
1227 B -9.134696 -12.440980 2.185865 B
1228 B -9.069402 -11.523210 2.032034 B
1229 B -9.008110 -11.505040 2.969761 B
1230 A -9.230639 -11.602390 3.886835 A
1231 A -9.207376 -11.786290 4.814844 A
1232 A -10.110580 -11.619210 4.954127 A
1233 A -10.723100 -12.064650 4.366590 A
1234 A -11.052270 -12.392970 3.499845 A
1235 A -11.386390 -13.017870 2.834450 A
1236 A -0.666761 -3.343503 4.331860 A
1237 A -1.323000 -2.632011 4.566530 A
1238 A -1.195227 -1.792021 5.038178 A
1239 A -0.823019 -2.452637 5.560572 A
1240 A -1.110687 -3.366998 5.576369 A
1241 A -2.052502 -3.613020 5.388459 A
1242 B -2.552242 -3.511965 4.531783 B
1243 B -2.360518 -3.363523 3.625654 B
1244 B -1.750080 -3.418804 2.887487 B
1245 B -0.893170 -3.321854 2.446735 B
1246 B -0.072037 -3.240879 1.979059 B
1247 B 0.065451 -3.591439 1.074305 B
1248 B 0.299270 -4.421982 0.662795 B
1249 A -0.377194 -5.076717 0.913836 A
1250 A -1.115659 -5.092743 0.264041 A
1251 A -1.512262 -4.241458 0.553423 A
1252 A -2.131925 -3.438265 0.530872 A
1253 A -1.543683 -2.913595 -0.007879 A
1254 A -1.010667 -2.164172 -0.277954 A
1255 A -6.819288 3.942587 11.768910 A
1256 A -6.409239 3.087896 11.647750 A
1257 A -5.791303 2.366148 11.764520 A
1258 A -4.839491 2.337081 11.912220 A
1259 A -4.166945 2.461258 11.245180 A
1260 A -3.841767 2.269918 10.348560 A
1261 B -3.544423 2.149983 9.460829 B
1262 B -2.887908 2.669677 9.047876 B
1263 B -1.976150 2.683705 9.451693 B
1264 B -1.543478 2.235894 10.216740 B
1265 B -1.915094 2.822028 10.836070 B
1266 B -2.144052 3.467406 11.517800 B
1267 B -1.823867 2.660522 11.986220 B
1268 A -1.771158 1.724654 12.144140 A
1269 A -1.170125 1.993507 11.475660 A
1270 A -0.389741 1.666948 11.975890 A
1271 A 0.388081 2.175658 11.657920 A
1272 A 0.578042 2.166646 10.730990 A
1273 A -0.140290 1.797943 10.193440 A
1274 A -12.976150 -0.925852 2.478945 A
1275 A -13.506950 -1.674020 2.665628 A
1276 A -13.542470 -2.525830 2.231058 A
1277 A -13.293250 -2.968823 3.057362 A
1278 A -12.687650 -3.423180 3.634747 A
1279 A -12.097820 -2.688972 3.491981 A
1280 B -11.455940 -3.051184 2.851023 B
1281 B -11.809550 -3.360135 1.987817 B
1282 B -11.630220 -3.760517 1.145643 B
1283 B -11.541670 -4.488256 0.545758 B
1284 B -10.751360 -4.398531 1.090232 B
1285 B -10.307940 -4.140841 1.878553 B
1286 B -9.523301 -4.463016 2.385987 B
1287 A -8.983422 -5.057918 2.885592 A
1288 A -9.181889 -5.950535 3.129538 A
1289 A -9.253538 -6.897141 3.106230 A
1290 A -8.590314 -7.003121 2.448440 A
1291 A -7.908373 -6.570782 1.893910 A
1292 A -7.569008 -6.242966 2.705878 A
1293 A -1.990484 -8.990163 8.134406 A
1294 A -1.490782 -9.801466 7.930948 A
1295 A -0.600082 -10.105330 7.751789 A
1296 A -0.185833 -10.747220 7.198094 A
1297 A -0.446043 -11.367070 6.559355 A
1298 A -0.621848 -11.705650 5.678951 A
1299 B -0.886864 -11.481450 4.760125 B
1300 B -0.147191 -12.008930 4.412465 B
1301 B 0.296011 -12.103780 5.270255 B
1302 B 0.709587 -12.476730 6.065546 B
1303 B 1.122275 -13.157750 6.631121 B
1304 B 2.055327 -13.407870 6.662530 B
1305 B 3.014989 13.506890 6.599634 B
1306 A 3.182096 12.690940 6.093413 A
1307 A 3.027159 12.528280 5.167283 A
1308 A 2.787653 12.699030 4.248683 A
1309 A 2.272692 13.492810 4.016695 A
1310 A 1.309496 -13.388400 3.990135 A
1311 A 0.663060 13.237870 3.465906 A
1312 A -3.996311 4.242140 -6.255622 A
1313 A -3.991660 4.788125 -5.400715 A
1314 A -3.867282 5.515368 -4.774275 A
1315 A -3.690637 4.727592 -4.237004 A
1316 A -3.780955 5.381074 -3.649883 A
1317 A -2.980739 5.974493 -3.479892 A
1318 B -2.625050 6.513207 -4.125634 B
1319 B -3.098684 7.372563 -4.187360 B
1320 B -3.427509 7.735538 -5.047106 B
1321 B -3.985739 6.981924 -5.473681 B
1322 B -4.577652 6.224877 -5.795687 B
1323 B -4.817357 5.602135 -6.465504 B
1324 B -5.418861 4.734579 -6.669508 B
1325 A -5.678502 4.500384 -5.775585 A
1326 A -5.931600 5.407688 -5.504095 A
1327 A -6.323692 6.117940 -4.943779 A
1328 A -6.470363 6.493921 -4.060596 A
1329 A -6.150306 6.344649 -3.101309 A
1330 A -6.721765 5.542610 -2.984753 A
1331 A 2.013787 3.371748 -11.783470 A
1332 A 1.440250 2.957401 -12.414780 A
1333 A 0.559995 2.612758 -12.633600 A
1334 A 0.148596 2.092399 -11.925690 A
1335 A 0.993785 1.800184 -11.631670 A
1336 A 1.585075 1.045606 -11.642870 A
1337 B 2.534427 1.178928 -11.712350 B
1338 B 3.296134 1.693668 -11.956950 B
1339 B 3.798233 1.372581 -11.202590 B
1340 B 3.197996 0.643544 -10.999610 B
1341 B 3.255666 -0.197228 -10.560250 B
1342 B 3.937803 -0.691722 -10.129630 B
1343 B 4.268051 -0.085781 -9.474968 B
1344 A 3.331128 0.095858 -9.305060 A
1345 A 2.465597 0.526490 -9.218869 A
1346 A 1.663328 0.471258 -9.769374 A
1347 A 1.580641 1.109752 -10.485190 A
1348 A 1.650712 1.781426 -9.824234 A
1349 A 1.231807 2.474283 -9.288078 A
1350 A -3.467911 7.929860 5.694033 A
1351 A -3.040046 8.787040 5.575108 A
1352 A -2.359876 9.237153 6.100770 A
1353 A -1.795793 8.512645 6.367853 A
1354 A -1.937810 7.615911 6.677267 A
1355 A -2.588310 8.029037 7.268162 A
1356 B -3.363316 8.386571 6.835701 B
1357 B -4.026121 7.697324 6.957407 B
1358 B -3.572400 6.838469 6.925223 B
1359 B -2.791862 6.279267 6.866185 B
1360 B -2.842570 5.321422 7.031723 B
1361 B -2.841707 4.415300 7.370337 B
1362 B -3.275680 4.068095 8.142619 B
1363 A -2.798227 4.841773 8.485704 A
1364 A -1.853102 4.992052 8.499918 A
1365 A -1.394042 5.790170 8.198272 A
1366 A -2.024208 6.222193 7.622471 A
1367 A -1.779029 5.659378 6.876091 A
1368 A -2.122192 5.025361 6.233758 A
1369 A 6.367874 -2.036072 -11.387560 A
1370 A 5.426235 -2.135595 -11.419500 A
1371 A 4.777061 -2.263065 -10.714660 A
1372 A 4.892097 -2.933914 -10.036960 A
1373 A 4.154585 -3.438846 -9.658983 A
1374 A 3.873152 -3.240057 -10.517950 A
1375 B 3.762135 -2.712955 -11.302240 B
1376 B 4.427846 -3.040404 -11.917040 B
1377 B 4.387744 -3.517558 -12.736410 B
1378 B 4.563854 -3.628915 13.428000 B
1379 B 4.410974 -4.307544 12.805420 B
1380 B 4.225771 -5.223353 12.675110 B
1381 B 3.308628 -5.048889 12.290030 B
1382 A 2.385719 -5.271995 12.275210 A
1383 A 1.942689 -5.160569 13.080000 A
1384 A 1.299448 -4.788440 -13.439920 A
1385 A 0.603773 -4.150505 -13.524330 A
1386 A -0.138275 -3.799168 13.068450 A
1387 A -0.610926 -3.426359 12.308050 A
1388 A -1.025349 7.592349 7.210061 A
1389 A -1.157650 6.637072 7.184133 A
1390 A -0.525348 6.110825 7.658848 A
1391 A 0.411425 6.166338 7.911500 A
1392 A 1.199160 6.469701 7.424543 A
1393 A 1.585978 7.343065 7.478194 A
1394 B 1.403620 8.114947 8.049429 B
1395 B 1.475082 8.546844 8.912922 B
1396 B 1.560210 8.946720 9.805100 B
1397 B 1.855758 8.956981 10.751720 B
1398 B 1.982095 8.927339 11.695330 B
1399 B 2.211943 8.612322 12.580460 B
1400 B 2.231531 8.109235 13.414420 B
1401 A 1.544626 7.510195 -13.321910 A
1402 A 1.038152 6.823814 13.331840 A
1403 A 1.088300 7.594957 12.745500 A
1404 A 1.003402 8.447504 12.309900 A
1405 A 0.834436 9.292169 11.857010 A
1406 A 0.354780 9.257512 11.008090 A
1407 A -5.908936 7.590403 12.159150 A
1408 A -5.795454 8.408919 12.784970 A
1409 A -6.205781 9.303665 12.727020 A
1410 A -6.615139 9.121682 11.846570 A
1411 A -6.815201 8.763676 10.914770 A
1412 A -7.089510 8.026782 10.457800 A
1413 B -6.485164 7.641814 9.810734 B
1414 B -6.055947 7.346809 10.588840 B
1415 B -6.613099 7.036932 11.341470 B
1416 B -7.276398 7.496599 11.841270 B
1417 B -7.296480 7.224911 12.748740 B
1418 B -7.450346 7.455592 -13.453870 B
1419 B -7.942460 7.663657 -12.664730 B
1420 A -7.212204 8.127767 -12.255760 A
1421 A -6.940460 7.193799 -12.418810 A
1422 A -7.172755 6.412605 -12.979730 A
1423 A -7.468508 5.916010 13.332210 A
1424 A -7.739506 5.103117 12.891020 A
1425 A -7.990363 4.263315 12.483010 A
1426 A 8.227276 -5.586610 5.468420 A
1427 A 8.141364 -6.498575 5.744958 A
1428 A 8.460762 -7.384444 5.897995 A
1429 A 9.374215 -7.694728 5.928150 A
1430 A 10.224760 -7.286520 6.118906 A
1431 A 11.066290 -6.946750 5.819139 A
1432 B 11.848430 -6.596696 5.371321 B
1433 B 11.986320 -6.350646 4.429403 B
1434 B 11.697560 -5.596473 3.915854 B
1435 B 10.910930 -5.094121 3.732826 B
1436 B 10.251160 -5.024749 4.451456 B
1437 B 10.139620 -5.559347 5.246766 B
1438 B 11.083950 -5.677290 4.993512 B
1439 A 11.894200 -5.146527 5.046289 A
1440 A 12.237930 -5.531319 5.871761 A
1441 A 12.638100 -6.028830 6.606939 A
1442 A 13.074660 -6.810389 6.984077 A
1443 A -13.294070 -6.931394 7.618227 A
1444 A -12.670460 -6.274135 7.987487 A
1445 A -6.002318 -12.425630 -10.740750 A
1446 A -6.380896 -11.703420 -11.268840 A
1447 A -7.282102 -11.275360 -11.230970 A
1448 A -8.174633 -10.951910 -11.119790 A
1449 A -8.568399 -11.078640 -10.276830 A
1450 A -8.379239 -11.831870 -9.738844 A
1451 B -7.981030 -12.371280 -9.047515 B
1452 B -7.576691 -13.072270 -8.541355 B
1453 B -6.731703 -13.419700 -8.189431 B
1454 B -5.918703 -13.248090 -7.755222 B
1455 B -5.146264 -13.367230 -7.091458 B
1456 B -4.830125 13.496950 -6.221538 B
1457 B -4.203750 -13.344980 -5.580549 B
1458 A -3.942974 -13.510630 -4.686635 A
1459 A -2.996764 13.538460 -4.721062 A
1460 A -2.622131 -12.774390 -5.142851 A
1461 A -2.909605 -11.891550 -5.343393 A
1462 A -3.693147 -11.732030 -5.834456 A
1463 A -3.989333 -12.487220 -6.343195 A
1464 A 9.087333 -0.761292 0.332707 A
1465 A 10.041830 -0.567524 0.591657 A
1466 A 10.528290 -1.143970 0.040559 A
1467 A 10.184030 -1.768997 -0.584726 A
1468 A 9.422174 -2.181998 -0.996258 A
1469 A 8.796711 -1.922853 -1.714602 A
1470 B 9.246720 -1.437341 -2.366750 B
1471 B 10.111170 -1.166627 -2.076384 B
1472 B 9.749664 -0.804210 -1.233435 B
1473 B 9.235324 -0.182283 -0.756767 B
1474 B 9.689158 0.463193 -0.179462 B
1475 B 10.548400 0.138598 -0.429121 B
1476 B 11.309570 -0.441384 -0.350298 B
1477 A 11.259320 -1.218074 -0.903931 A
1478 A 11.191960 -2.176200 -1.066010 A
1479 A 10.568860 -2.798128 -1.439422 A
1480 A 10.019900 -2.625721 -2.216259 A
1481 A 9.657136 -2.908503 -3.024007 A
1482 A 9.507943 -3.788466 -3.293796 A
1483 A -11.215970 2.226007 0.968804 A
1484 A -10.650120 2.711658 1.640707 A
1485 A -9.787650 2.678613 2.033846 A
1486 A -9.224459 2.246691 1.462540 A
1487 A -8.756842 1.369262 1.459002 A
1488 A -8.337453 0.510490 1.661761 A
1489 B -8.317370 -0.151891 2.349221 B
1490 B -8.612048 -0.932478 2.779016 B
1491 B -9.356595 -1.003362 3.370069 B
1492 B -9.389543 -0.101388 3.712213 B
1493 B -9.183035 0.665358 4.154912 B
1494 B -8.534753 1.264105 4.507316 B
1495 B -8.883860 1.762490 5.212790 B
1496 A -9.412306 2.224996 5.833715 A
1497 A -10.269710 2.244808 6.303714 A
1498 A -10.639710 2.946204 6.949733 A
1499 A -9.901657 3.593973 7.186493 A
1500 A -9.456826 4.395471 7.381479 A
1501 A -9.647187 5.080738 6.772461 A
1502 A -1.248651 -10.127370 9.262242 A
1503 A -1.252098 -10.998490 9.679381 A
1504 A -1.289847 -11.862850 10.119600 A
1505 A -0.744713 -12.500910 9.677481 A
1506 A -1.115628 -12.473830 8.803849 A
1507 A -1.839190 -13.050820 8.768413 A
1508 B -2.428611 13.320350 8.561664 B
1509 B -2.091537 12.469570 8.839213 B
1510 B -1.654858 11.608730 8.961071 B
1511 B -1.164109 10.761100 9.105872 B
1512 B -0.880999 10.399050 8.247475 B
1513 B -1.257834 10.523090 7.315266 B
1514 B -1.732151 10.438340 6.462716 B
1515 A -1.754544 11.070140 5.735001 A
1516 A -1.420097 11.975310 5.456735 A
1517 A -1.202605 12.901350 5.515917 A
1518 A -1.955642 13.502530 5.288773 A
1519 A -2.747491 -13.337490 4.817973 A
1520 A -3.399219 -12.623070 4.983264 A
1521 A 1.140737 3.110188 13.388670 A
1522 A 1.730574 3.853425 13.535020 A
1523 A 1.452378 4.703553 -13.177520 A
1524 A 1.636711 5.634148 -13.037140 A
1525 A 2.067503 6.408824 -13.417540 A
1526 A 2.973312 6.707010 -13.367790 A
1527 B 3.908298 6.536802 -13.460810 B
1528 B 4.299272 6.652220 12.756950 B
1529 B 4.753630 6.613892 11.925530 B
1530 B 5.094052 7.409850 11.534510 B
1531 B 4.244461 7.870771 11.568120 B
1532 B 3.777895 8.637680 11.887530 B
1533 B 3.368079 9.302925 12.468100 B
1534 A 2.518604 9.795299 12.477450 A
1535 A 2.313294 10.324690 13.216170 A
1536 A 2.956574 10.404460 -13.162990 A
1537 A 3.832518 9.973072 -13.298260 A
1538 A 3.667005 10.307810 12.906870 A
1539 A 3.077996 10.780410 12.340730 A
1540 A -12.385150 -6.056990 -11.167280 A
1541 A -12.087060 -5.942369 -10.272560 A
1542 A -12.215450 -6.149862 -9.340987 A
1543 A -11.796660 -6.308220 -8.493805 A
1544 A -10.914750 -6.489673 -8.158137 A
1545 A -10.033370 -6.387759 -8.541098 A
1546 B -9.538505 -5.922365 -9.223244 B
1547 B -9.787896 -6.412748 -10.035710 B
1548 B -9.278107 -6.597149 -10.840010 B
1549 B -9.031748 -6.123325 -11.621090 B
1550 B -9.125357 -5.321309 -12.148450 B
1551 B -9.059964 -4.598412 -11.511900 B
1552 B -8.957232 -4.049884 -10.721100 B
1553 A -8.038533 -3.783325 -10.820710 A
1554 A -7.158273 -3.456403 -11.004660 A
1555 A -6.194023 -3.511581 -10.836540 A
1556 A -5.238394 -3.319317 -10.940210 A
1557 A -4.663930 -2.879056 -11.550160 A
1558 A -3.736823 -2.652576 -11.590270 A
1559 A -0.616215 -10.790740 -8.856999 A
1560 A -0.892978 -10.122840 -9.504904 A
1561 A -1.095471 -9.341874 -10.029380 A
1562 A -1.463657 -8.555956 -10.427050 A
1563 A -0.521835 -8.404551 -10.517910 A
1564 A -0.184934 -7.791847 -9.841668 A
1565 B -0.496157 -7.474036 -9.024889 B
1566 B -1.280263 -8.006741 -9.294743 B
1567 B -1.831661 -8.437301 -8.689652 B
1568 B -2.039541 -8.659142 -7.711917 B
1569 B -3.007781 -8.723707 -7.655874 B
1570 B -3.885281 -9.065367 -7.862595 B
1571 B -3.628534 -8.691589 -8.750325 B
1572 A -3.000012 -7.922741 -8.493669 A
1573 A -3.383684 -7.153889 -7.950847 A
1574 A -4.130695 -6.653805 -8.211830 A
1575 A -3.921993 -5.748824 -8.228003 A
1576 A -4.240959 -4.874383 -8.570072 A
1577 A -4.449399 -3.923303 -8.813026 A
1578 A -1.556078 -8.530063 5.401659 A
1579 A -1.882810 -8.782404 4.540969 A
1580 A -2.222574 -8.592255 3.662457 A
1581 A -1.570064 -7.979565 3.352425 A
1582 A -1.736900 -7.118042 2.884816 A
1583 A -2.000365 -6.551633 3.623712 A
1584 B -1.785349 -7.264784 4.246931 B
1585 B -2.088804 -7.363423 5.229237 B
1586 B -2.423867 -7.436383 6.151067 B
1587 B -2.836279 -7.545480 7.000159 B
1588 B -3.594793 -6.937218 6.966584 B
1589 B -3.994345 -7.808615 6.946984 B
1590 B -3.982473 -8.371837 6.173585 B
1591 A -4.414515 -8.679546 5.377317 A
1592 A -4.888728 -8.628876 4.528454 A
1593 A -4.355614 -9.060044 3.930587 A
1594 A -4.102515 -9.691380 3.074807 A
1595 A -3.664728 -10.020360 2.375571 A
1596 A -4.021035 -10.791950 1.771380 A
1597 A -1.808477 -5.811538 2.586582 A
1598 A -0.941400 -5.372726 2.508716 A
1599 A -0.582286 -4.445999 2.635142 A
1600 A 0.159581 -5.022192 2.484391 A
1601 A 0.660484 -5.481431 1.818053 A
1602 A 1.347303 -6.012033 2.226182 A
1603 B 2.267209 -5.981864 1.896871 B
1604 B 2.810593 -6.525308 1.220728 B
1605 B 2.824202 -6.786396 0.276900 B
1606 B 2.100003 -7.424407 0.140679 B
1607 B 1.559640 -7.161251 0.893879 B
1608 B 1.870635 -6.344777 0.597374 B
1609 B 2.196418 -5.614445 0.067957 B
1610 A 1.997804 -6.298675 -0.597252 A
1611 A 2.821593 -5.890766 -1.068516 A
1612 A 2.912591 -4.965840 -1.283757 A
1613 A 3.775347 -4.797971 -1.641847 A
1614 A 4.143816 -5.671694 -1.530358 A
1615 A 3.859327 -6.557055 -1.712068 A
1616 A -5.804744 7.325053 1.352838 A
1617 A -4.925013 7.792877 1.469772 A
1618 A -4.209243 8.417535 1.446351 A
1619 A -3.608137 9.069641 1.105672 A
1620 A -3.114290 9.601228 0.485404 A
1621 A -2.241202 9.638952 0.060323 A
1622 B -2.241217 9.141603 0.860946 B
1623 B -2.171517 8.432349 1.433104 B
1624 B -1.201295 8.265517 1.596709 B
1625 B -1.155682 8.115792 0.624803 B
1626 B -1.882420 7.568964 0.329769 B
1627 B -1.531104 6.706005 0.634018 B
1628 B -1.106969 6.087486 0.013955 B
1629 A -1.980831 5.817456 -0.305102 A
1630 A -2.452738 5.720891 0.459803 A
1631 A -2.242790 4.962288 1.011487 A
1632 A -1.612408 4.409951 1.577219 A
1633 A -1.074222 4.816750 0.903230 A
1634 A -0.233501 5.305110 0.828009 A
1635 A 3.021371 -3.320387 4.681964 A
1636 A 2.368429 -3.150557 5.352169 A
1637 A 2.545332 -2.249699 5.499097 A
1638 A 3.145568 -1.959767 4.809859 A
1639 A 3.174729 -2.487758 3.996785 A
1640 A 2.360557 -2.140170 3.510914 A
1641 B 2.127725 -1.457226 4.115898 B
1642 B 1.655566 -0.824120 4.665025 B
1643 B 0.901372 -0.453269 5.078663 B
1644 B 0.130608 -1.037100 4.979264 B
1645 B 0.404129 -1.461739 4.146702 B
1646 B 1.097489 -1.139878 3.553228 B
1647 B 1.661861 -0.360869 3.693630 B
1648 A 1.768304 0.293396 4.376585 A
1649 A 1.233215 0.559673 5.123974 A
1650 A 0.342900 0.476300 5.537883 A
1651 A -0.463120 -0.084426 5.475195 A
1652 A -1.224837 -0.478469 5.038670 A
1653 A -1.825649 -1.035149 4.575346 A
1654 A -7.976611 2.404943 5.006766 A
1655 A -7.906684 1.788731 5.738377 A
1656 A -8.122289 1.120614 6.390361 A
1657 A -8.775212 0.596994 6.877414 A
1658 A -9.614380 0.112394 6.867994 A
1659 A -10.281450 0.173825 6.178137 A
1660 B -10.769050 -0.077669 5.388863 B
1661 B -11.544000 -0.275773 4.860767 B
1662 B -12.440900 0.027915 4.928110 B
1663 B -12.970830 0.307989 4.192776 B
1664 B -12.896320 -0.599689 3.878391 B
1665 B -12.696030 -1.436163 4.313099 B
1666 B -12.716160 -1.697089 5.233420 B
1667 A -11.973860 -2.142443 5.619124 A
1668 A -11.930990 -2.708433 4.838161 A
1669 A -11.256810 -2.405848 4.254624 A
1670 A -10.593200 -1.700885 4.350547 A
1671 A -9.991216 -0.968465 4.506927 A
1672 A -9.072454 -0.690324 4.576915 A
1673 A -8.225082 8.546938 -5.803133 A
1674 A -7.987067 7.634246 -5.793697 A
1675 A -7.600603 7.627778 -4.938796 A
1676 A -6.976638 7.440065 -4.281319 A
1677 A -6.933696 7.676579 -3.339716 A
1678 A -6.782107 7.215579 -2.493909 A
1679 B -7.734618 7.154069 -2.529767 B
1680 B -8.295832 6.493462 -2.990305 B
1681 B -7.966265 5.641876 -3.188707 B
1682 B -7.915018 5.138494 -3.997216 B
1683 B -8.242027 4.502885 -4.689823 B
1684 B -8.099508 3.554158 -4.371665 B
1685 B -7.918541 3.460467 -3.409985 B
1686 A -7.030127 3.518948 -3.730872 A
1687 A -6.073084 3.570521 -3.868066 A
1688 A -6.318987 3.092595 -4.671749 A
1689 A -5.552551 3.587656 -4.905801 A
1690 A -5.616407 4.528611 -4.598366 A
1691 A -5.435815 5.466797 -4.507227 A
1692 A 12.520200 8.121598 -3.876359 A
1693 A 12.167460 7.752882 -3.047417 A
1694 A 11.825640 7.167427 -2.374664 A
1695 A 11.778480 6.826990 -1.472668 A
1696 A 11.980470 6.772750 -0.520377 A
1697 A 12.250210 6.682250 0.403446 A
1698 B 12.692210 6.063372 0.999442 B
1699 B 13.059100 5.559122 1.707163 B
1700 B 12.477370 4.944911 2.153154 B
1701 B 11.533670 5.127884 2.197554 B
1702 B 11.000760 5.743709 1.655823 B
1703 B 10.671620 6.237640 0.903215 B
1704 B 10.065750 6.690312 0.307817 B
1705 A 9.599957 7.501853 0.467436 A
1706 A 10.470220 7.894430 0.502814 A
1707 A 11.290690 7.484659 0.222876 A
1708 A 12.057050 7.704251 0.764703 A
1709 A 12.188530 8.529747 1.239227 A
1710 A 13.075040 8.711424 1.565880 A
1711 A -3.417510 12.350270 2.821000 A
1712 A -3.820965 12.188080 1.902679 A
1713 A -4.380496 13.000110 1.809694 A
1714 A -5.203447 13.534770 1.820556 A
1715 A -5.303877 13.328880 2.751920 A
1716 A -5.527977 -13.437520 3.587805 A
1717 B -5.970837 -12.851380 2.983471 B
1718 B -6.496755 -12.766060 2.185472 B
1719 B -7.121786 -12.856190 2.921792 B
1720 B -7.492180 -12.726520 3.803446 B
1721 B -7.205739 -12.000690 4.420206 B
1722 B -7.009410 -11.436670 3.657524 B
1723 B -7.490999 -11.585200 2.874184 B
1724 A -7.916119 -12.313810 2.455048 A
1725 A -8.295922 -13.203720 2.542079 A
1726 A -9.107319 13.335600 2.578509 A
1727 A -9.958693 13.074350 2.989177 A
1728 A -10.766150 13.300040 3.423862 A
1729 A -10.854830 -13.165330 4.132145 A
1730 A 4.346729 -2.739035 -8.883719 A
1731 A 4.214835 -2.579580 -7.964171 A
1732 A 4.239845 -2.214619 -7.054587 A
1733 A 4.260248 -2.986931 -6.499937 A
1734 A 4.959819 -3.351153 -7.028864 A
1735 A 4.479698 -4.135751 -6.913520 A
1736 B 3.602442 -4.237980 -6.554358 B
1737 B 2.842430 -4.846063 -6.435578 B
1738 B 1.935772 -5.061228 -6.130127 B
1739 B 1.052249 -4.826417 -6.467715 B
1740 B 0.622658 -4.069604 -6.915533 B
1741 B 1.025597 -3.404165 -6.425816 B
1742 B 1.058394 -2.685728 -5.787406 B
1743 A 0.791075 -2.113271 -5.021860 A
1744 A 0.186673 -1.353998 -5.196867 A
1745 A -0.224060 -0.488757 -5.249409 A
1746 A -1.126705 -0.131250 -5.143430 A
1747 A -1.661350 0.339091 -4.572362 A
1748 A -2.067118 -0.337124 -3.947498 A
1749 A -9.577748 -11.617080 -9.736974 A
1750 A -9.566355 -12.556560 -9.459877 A
1751 A -9.570072 -13.264170 -8.812052 A
1752 A -9.297287 13.122430 -8.222198 A
1753 A -9.824363 12.449260 -7.736408 A
1754 A -10.747450 12.610100 -8.013734 A
1755 B -10.596110 12.858000 -8.936237 B
1756 B -10.771990 13.101820 -9.852371 B
1757 B -10.511780 13.329300 -10.746700 B
1758 B -10.121980 13.010230 -11.559950 B
1759 B -10.134450 12.150220 -11.977980 B
1760 B -9.589401 11.379540 -11.827500 B
1761 B -9.074186 10.637240 -11.487040 B
1762 A -9.116119 10.681220 -10.548960 A
1763 A -10.021310 10.463210 -10.767740 A
1764 A -10.427780 10.071800 -11.555610 A
1765 A -11.117860 9.984038 -12.208330 A
1766 A -11.331620 9.783113 -13.116810 A
1767 A -11.083260 10.322260 13.233030 A
1768 A -2.335927 -2.579459 9.383035 A
1769 A -1.997479 -1.777646 8.948982 A
1770 A -1.207651 -1.676361 8.366167 A
1771 A -0.553565 -0.991142 8.276490 A
1772 A 0.200028 -0.394331 8.224008 A
1773 A 0.744160 0.002117 8.954611 A
1774 B 1.465075 0.529677 9.385550 B
1775 B 0.768651 0.865542 9.998962 B
1776 B -0.160696 0.610752 10.085470 B
1777 B -0.621522 0.881691 10.883980 B
1778 B -1.275524 0.813664 11.566950 B
1779 B -1.931242 0.269830 11.987790 B
1780 B -2.046621 -0.514782 12.562260 B
1781 A -2.229178 -1.450851 12.674480 A
1782 A -1.754809 -2.093463 12.092760 A
1783 A -1.946796 -2.863769 11.522510 A
1784 A -2.709174 -3.041397 10.977530 A
1785 A -3.112927 -2.196194 10.738130 A
1786 A -3.109874 -1.238113 10.606330 A
1787 A 8.615116 -5.044435 1.929319 A
1788 A 7.767665 -4.959373 1.387089 A
1789 A 7.106144 -5.627074 1.051225 A
1790 A 7.859319 -6.219226 1.285779 A
1791 A 8.334350 -6.872560 1.749207 A
1792 A 8.660510 -7.736287 1.984441 A
1793 B 7.905088 -7.564951 2.570708 B
1794 B 7.684024 -6.597446 2.771607 B
1795 B 7.601175 -5.938222 3.446293 B
1796 B 7.620088 -5.003086 3.727451 B
1797 B 7.417164 -4.100679 3.475047 B
1798 B 8.302521 -3.794021 3.195934 B
1799 B 8.192316 -3.872086 2.148841 B
1800 A 7.570060 -3.123765 2.260764 A
1801 A 6.783144 -2.533710 2.436718 A
1802 A 6.363244 -2.635865 3.341929 A
1803 A 6.776428 -2.991772 4.125162 A
1804 A 6.074285 -3.626163 3.863516 A
1805 A 5.530448 -3.748016 3.171913 A
1806 A -4.435938 -5.389412 8.086978 A
1807 A -3.963956 -5.989977 7.536738 A
1808 A -3.174125 -5.905300 6.972408 A
1809 A -2.862736 -5.595097 6.128043 A
1810 A -2.562781 -4.772462 6.464369 A
1811 A -2.316078 -4.095072 7.081613 A
1812 B -1.582038 -3.663394 7.534550 B
1813 B -1.235407 -3.129710 6.831284 B
1814 B -0.936066 -4.005829 6.548855 B
1815 B -1.133772 -4.859173 6.928181 B
1816 B -1.862028 -5.371113 7.177798 B
1817 B -2.079635 -6.262863 6.963268 B
1818 B -1.310317 -6.770586 6.704693 B
1819 A -1.303213 -7.665156 7.070810 A
1820 A -1.361384 -8.604307 7.212940 A
1821 A -1.070719 -9.398034 6.779942 A
1822 A -0.907746 -9.842706 5.935384 A
1823 A -0.324810 -9.696311 5.199444 A
1824 A -0.528401 -9.327470 4.345919 A
1825 A -1.962805 -11.865750 -10.459170 A
1826 A -2.927898 -12.150830 -10.341360 A
1827 A -3.545942 -11.890390 -9.664041 A
1828 A -4.087486 -11.087350 -9.540283 A
1829 A -4.277304 -10.170500 -9.820859 A
1830 A -4.194864 -9.276417 -9.478988 A
1831 B -3.604094 -9.846218 -8.975744 B
1832 B -3.314593 -10.747760 -8.750267 B
1833 B -2.823686 -11.584170 -8.722868 B
1834 B -2.097348 -11.869480 -9.292418 B
1835 B -1.982744 -10.961930 -9.466199 B
1836 B -2.641037 -10.781930 -10.128360 B
1837 B -3.461907 -10.763370 -10.629980 B
1838 A -3.863582 -10.384170 -11.408750 A
1839 A -3.609930 -9.849813 -12.166570 A
1840 A -2.795109 -9.454450 -11.855200 A
1841 A -2.526605 -8.700590 -11.383570 A
1842 A -2.727284 -8.256609 -10.550560 A
1843 A -3.244085 -7.567308 -10.145040 A
1844 A 1.688209 10.673020 8.143262 A
1845 A 1.983168 9.946093 7.630897 A
1846 A 2.615303 9.235402 7.762657 A
1847 A 3.304139 8.968330 8.384420 A
1848 A 4.154951 8.876241 8.837255 A
1849 A 3.602871 9.145921 9.591211 A
1850 B 2.647509 9.329977 9.357782 B
1851 B 3.012979 10.174970 8.770835 B
1852 B 3.681472 10.520340 9.284495 B
1853 B 4.577752 10.823880 9.599722 B
1854 B 4.622427 10.717430 10.536940 B
1855 B 3.924751 10.388890 11.154070 B
1856 B 2.998587 10.435280 10.906580 B
1857 A 2.225294 11.028530 10.873120 A
1858 A 1.387414 11.424190 10.510660 A
1859 A 0.378009 11.568590 10.510440 A
1860 A 0.748646 11.373710 9.650272 A
1861 A 0.671867 11.044750 8.746107 A
1862 A 0.370828 10.137000 8.507264 A
1863 A -8.453667 -3.263000 -6.370209 A
1864 A -7.792222 -3.770606 -5.993919 A
1865 A -6.985606 -4.240293 -5.908410 A
1866 A -6.463692 -4.830506 -5.404291 A
1867 A -5.828569 -5.481565 -5.059388 A
1868 A -4.930337 -5.170595 -5.040038 A
1869 B -4.358719 -4.919237 -4.299817 B
1870 B -3.740082 -4.398312 -3.812567 B
1871 B -3.042058 -4.438797 -3.174652 B
1872 B -2.129919 -4.646890 -2.801526 B
1873 B -1.484146 -5.229344 -2.360281 B
1874 B -1.027320 -5.189223 -1.566825 B
1875 B -0.996973 -4.249594 -1.357450 B
1876 A -0.913075 -3.600692 -0.634598 A
1877 A -0.698201 -3.531479 0.347190 A
1878 A -0.703041 -2.830390 1.102447 A
1879 A -1.444377 -2.813898 1.619879 A
1880 A -1.650105 -3.747838 1.531687 A
1881 A -1.474956 -4.498145 2.075280 A
1882 A -0.178938 3.099215 -2.171419 A
1883 A 0.669350 2.635514 -1.919596 A
1884 A 1.357853 2.336890 -1.291895 A
1885 A 2.143191 2.334981 -0.767041 A
1886 A 2.738347 1.699418 -0.309158 A
1887 A 2.719820 1.317770 -1.171138 A
1888 B 2.286933 0.917915 -1.907124 B
1889 B 2.127661 0.230168 -2.575962 B
1890 B 2.148743 -0.414857 -3.303445 B
1891 B 2.486197 -0.977132 -3.948660 B
1892 B 2.956134 -1.747222 -4.190497 B
1893 B 3.268270 -2.466704 -4.698205 B
1894 B 4.079000 -2.807067 -5.127747 B
1895 A 4.354344 -3.575225 -5.605177 A
1896 A 3.400427 -3.511496 -5.793570 A
1897 A 2.500247 -3.485813 -6.196985 A
1898 A 2.309615 -4.002833 -6.990033 A
1899 A 1.638148 -3.493016 -7.368979 A
1900 A 1.218500 -2.578243 -7.295578 A
1901 A 13.367980 10.275430 -12.903770 A
1902 A 13.483850 11.219820 -12.888990 A
1903 A 13.385740 12.099520 -12.525520 A
1904 A 13.332060 12.298020 -11.589140 A
1905 A 13.202330 11.388110 -11.271310 A
1906 A 13.315120 10.429320 -11.228590 A
1907 B 13.051990 9.840572 -11.958420 B
1908 B 12.694670 10.744430 -12.103560 B
1909 B 11.929620 10.498540 -12.623920 B
1910 B 12.185910 10.188090 -13.472530 B
1911 B 12.599140 10.807220 13.082080 B
1912 B 13.248730 11.462310 12.929160 B
1913 B -13.327990 12.256770 12.912710 B
1914 A -12.743840 12.623620 -13.510000 A
1915 A -13.214900 13.421960 13.185570 A
1916 A 12.917520 13.268280 12.998630 A
1917 A 12.491790 12.983910 12.193460 A
1918 A 13.186060 12.517500 11.759230 A
1919 A -13.235530 13.084300 12.070530 A
1920 A -11.045510 4.545759 -1.624145 A
1921 A -11.176390 5.482098 -1.406865 A
1922 A -12.036970 5.049417 -1.361045 A
1923 A -12.352470 4.378488 -0.743899 A
1924 A -12.700600 3.746578 -0.095935 A
1925 A -13.334660 3.462950 0.586038 A
1926 B 12.851290 3.573863 0.357521 B
1927 B 12.459280 4.392641 0.021772 B
1928 B 11.931080 5.143416 -0.351656 B
1929 B 11.392280 5.856483 -0.037708 B
1930 B 11.503260 5.312692 0.767207 B
1931 B 11.452840 4.412104 1.084948 B
1932 B 10.799790 4.157612 0.376408 B
1933 A 10.201010 4.831292 0.020957 A
1934 A 9.380706 5.324728 0.067939 A
1935 A 8.663018 4.887437 -0.445800 A
1936 A 8.669083 4.280970 0.287831 A
1937 A 9.009040 3.950597 1.139385 A
1938 A 9.418324 4.143962 1.980047 A
1939 A -6.253718 -6.933650 -11.677820 A
1940 A -6.534822 -6.930565 -10.751740 A
1941 A -7.390295 -6.547050 -10.477770 A
1942 A -7.972070 -5.957429 -9.969598 A
1943 A -8.349273 -6.348862 -9.216069 A
1944 A -9.114350 -6.832829 -8.844806 A
1945 B -9.118985 -6.729907 -7.892147 B
1946 B -8.386735 -6.431069 -7.372193 B
1947 B -7.511240 -6.268742 -7.632091 B
1948 B -6.810832 -6.747540 -8.196134 B
1949 B -6.186725 -6.311215 -8.833684 B
1950 B -5.645506 -6.181818 -9.653437 B
1951 B -6.005110 -5.305433 -9.702552 B
1952 A -6.838788 -5.132980 -9.240696 A
1953 A -7.319888 -5.954514 -9.152770 A
1954 A -7.425071 -6.874079 -9.448035 A
1955 A -8.078773 -7.522291 -9.663963 A
1956 A -8.585198 -8.300170 -9.841740 A
1957 A -8.400745 -8.994826 -9.165005 A
1958 A 5.623556 1.631701 1.931879 A
1959 A 5.741957 2.524940 2.207284 A
1960 A 6.104271 3.452193 2.087824 A
1961 A 5.589233 4.303646 2.272247 A
1962 A 4.709675 4.493858 1.955804 A
1963 A 3.928719 4.315550 1.440251 A
1964 B 3.864524 3.473924 1.853298 B
1965 B 4.084810 2.782079 2.463568 B
1966 B 4.795132 2.527169 3.028946 B
1967 B 5.562291 2.065908 3.405276 B
1968 B 6.337469 1.662782 3.800803 B
1969 B 6.072612 1.089538 4.497049 B
1970 B 6.505555 0.705828 5.266110 B
1971 A 6.834197 0.752375 6.151837 A
1972 A 6.650135 -0.043773 6.699848 A
1973 A 6.600823 -0.556055 5.847470 A
1974 A 6.772647 -1.005777 4.996614 A
1975 A 7.246464 -1.864228 4.966446 A
1976 A 7.944159 -2.430743 4.889317 A
1977 A -3.646678 -7.258969 -13.175700 A
1978 A -4.096477 -7.800591 13.272370 A
1979 A -5.043056 -7.701000 13.492800 A
1980 A -5.054786 -6.790700 -13.335470 A
1981 A -4.721748 -5.942637 13.421490 A
1982 A -4.402453 -5.326514 12.765080 A
1983 B -4.108051 -4.536177 12.255570 B
1984 B -4.036437 -3.603165 11.997110 B
1985 B -4.904844 -3.592265 12.394820 B
1986 B -5.649086 -4.171241 12.470020 B
1987 B -5.089952 -4.745083 11.965160 B
1988 B -4.334558 -5.033180 11.433180 B
1989 B -4.211357 -5.545404 10.644720 B
1990 A -4.763994 -5.510182 9.851304 A
1991 A -5.436548 -5.099150 10.371790 A
1992 A -5.912709 -5.287387 11.159900 A
1993 A -6.538967 -4.767161 11.622860 A
1994 A -7.230352 -4.408432 12.252610 A
1995 A -8.074285 -3.952191 12.171490 A
1996 A 3.251410 2.339370 0.393307 A
1997 A 2.453045 2.849260 0.806636 A
1998 A 2.277035 3.519367 0.133903 A
1999 A 2.041527 4.260784 0.636373 A
2000 A 2.480994 5.076054 0.818447 A
2001 A 3.075359 5.386504 1.567494 A
2002 B 2.934254 5.121874 2.462346 B
2003 B 3.310759 4.449561 3.022592 B
2004 B 3.694694 3.880725 3.679958 B
2005 B 3.445971 2.991261 3.451380 B
2006 B 3.041839 2.729245 4.256652 B
2007 B 2.893149 3.071032 5.132975 B
2008 B 2.746576 2.654790 5.952871 B
2009 A 2.918971 2.640449 6.912568 A
2010 A 2.273690 2.119932 7.437377 A
2011 A 2.691062 2.364765 8.258240 A
2012 A 3.555650 2.199968 8.615904 A
2013 A 4.262074 1.689000 8.323990 A
2014 A 4.322646 0.885317 8.781079 A
2015 A 0.410659 10.169670 -1.946591 A
2016 A 0.178734 9.617489 -2.709019 A
2017 A 0.089673 8.930453 -3.383263 A
2018 A 0.647441 8.913928 -4.210306 A
2019 A 0.612423 9.563721 -4.894752 A
2020 A 0.076928 10.343300 -4.825198 A
2021 B -0.773944 10.815730 -4.854832 B
2022 B -0.956866 10.757910 -5.778833 B
2023 B -1.639516 10.653880 -6.436434 B
2024 B -1.621149 11.029960 -7.316259 B
2025 B -1.371218 11.856040 -7.702305 B
2026 B -0.594916 12.034050 -8.234631 B
2027 B -0.024483 11.787280 -8.961735 B
2028 A -0.374074 12.667620 -9.180165 A
2029 A -0.847047 13.368250 -9.665118 A
2030 A -0.077632 13.371030 -10.242300 A
2031 A 0.440599 -13.371040 -10.983890 A
2032 A 1.140054 -12.711310 -10.872410 A
2033 A 1.803809 -12.031790 -10.708330 A
2034 A 10.827260 9.079516 0.113546 A
2035 A 11.365390 8.490351 -0.447987 A
2036 A 12.046600 8.161954 -1.047019 A
2037 A 12.370190 8.000695 -1.953300 A
2038 A 11.980730 8.871414 -1.922160 A
2039 A 12.098950 9.500841 -2.658308 A
2040 B 11.726090 8.896887 -3.308976 B
2041 B 11.094940 8.269016 -2.971073 B
2042 B 10.764570 9.171639 -2.824715 B
2043 B 9.844785 9.478434 -2.831416 B
2044 B 9.398855 9.678731 -3.676166 B
2045 B 9.551117 9.309242 -4.544944 B
2046 B 10.442170 9.598961 -4.730337 B
2047 A 11.321100 9.995907 -4.937405 A
2048 A 12.000440 10.197830 -4.285930 A
2049 A 12.590300 10.671310 -3.709656 A
2050 A 12.855970 11.028200 -2.870832 A
2051 A 13.385000 10.466920 -2.306967 A
2052 A 13.436790 9.508698 -2.305160 A
2053 A 11.737780 9.820469 10.642150 A
2054 A 12.503520 10.198840 11.130410 A
2055 A 13.239100 9.661279 10.793040 A
2056 A -13.042310 9.424426 10.309340 A
2057 A -12.688550 9.178686 9.437989 A
2058 A -11.996600 9.037088 8.780940 A
2059 B -11.578270 9.377628 7.935999 B
2060 B -11.432120 9.046432 7.061383 B
2061 B -11.834160 8.192752 6.824152 B
2062 B -11.961130 7.249125 7.079171 B
2063 B -12.025650 6.322514 7.329709 B
2064 B -12.135720 5.858520 8.158348 B
2065 B -12.710480 5.882520 8.927332 B
2066 A -13.267990 6.574195 9.251590 A
2067 A -13.429620 7.127187 8.476031 A
2068 A -12.775060 7.316380 7.811837 A
2069 A -13.087360 6.417207 7.772223 A
2070 A 13.490550 5.784916 8.279773 A
2071 A 13.275480 5.474267 9.165214 A
2072 A -1.927161 -11.661170 -8.087549 A
2073 A -2.390573 -11.706100 -7.244183 A
2074 A -1.925007 -11.806130 -6.387883 A
2075 A -1.034003 -12.194530 -6.497020 A
2076 A -0.450544 -12.056210 -5.759194 A
2077 A -0.974383 -11.215170 -6.017840 A
2078 B -1.507836 -10.560670 -6.483534 B
2079 B -1.402671 -9.685433 -6.839938 B
2080 B -0.925068 -10.058600 -7.507600 B
2081 B -0.785928 -9.345933 -8.170575 B
2082 B -0.252580 -8.820030 -8.771129 B
2083 B 0.655933 -8.904658 -9.084258 B
2084 B 1.590024 -8.836399 -9.303656 B
2085 A 2.432354 -8.889793 -8.852782 A
2086 A 3.101879 -8.858728 -8.130580 A
2087 A 3.978775 -8.850213 -8.265178 A
2088 A 4.309661 -8.907202 -7.329559 A
2089 A 3.816719 -8.781459 -6.524143 A
2090 A 3.347829 -9.299331 -7.186976 A
2091 A 13.331900 5.970914 -9.447566 A
2092 A 12.461220 5.580790 -9.331186 A
2093 A 12.278520 6.479795 -9.101086 A
2094 A 12.079780 7.408634 -9.350291 A
2095 A 12.082860 7.231724 -10.284420 A
2096 A 12.025670 6.389826 -10.721310 A
2097 B 12.900090 6.617978 -11.059330 B
2098 B 12.710880 7.238558 -11.750480 B
2099 B 12.153030 6.914423 -12.448400 B
2100 B 11.482100 6.416035 -12.902980 B
2101 B 11.803610 6.695349 13.324310 B
2102 B 12.426920 7.371618 13.517670 B
2103 B 12.787910 8.243374 -13.507800 B
2104 A 12.553440 9.082038 -13.104470 A
2105 A 11.798710 8.542749 -13.353460 A
2106 A 11.072790 7.921349 -13.110530 A
2107 A 10.239920 7.450739 -13.113330 A
2108 A 9.851659 6.703287 -12.613900 A
2109 A 9.606527 6.025582 -11.961000 A
2110 A -0.317267 -8.785464 9.753054 A
2111 A -0.748335 -8.653743 10.607400 A
2112 A -1.379822 -8.851746 11.284870 A
2113 A -1.673084 -9.754992 11.315300 A
2114 A -1.598250 -10.671560 10.982540 A
2115 A -1.993257 -10.131560 10.236380 A
2116 B -2.380843 -9.240405 10.247510 B
2117 B -2.677953 -8.453873 10.749100 B
2118 B -3.066140 -8.425378 11.621080 B
2119 B -3.044264 -8.672685 12.547690 B
2120 B -2.406589 -9.363151 12.739000 B
2121 B -2.176835 -10.243080 12.386300 B
2122 B -1.381566 -10.678140 12.113310 B
2123 A -0.661113 -11.093480 11.655530 A
2124 A 0.225465 -11.434590 11.897380 A
2125 A 1.139187 -11.572170 12.184380 A
2126 A 1.924512 -11.470000 12.707760 A
2127 A 2.616193 -11.316750 13.384280 A
2128 A 3.593189 -11.223290 13.424710 A
2129 A -6.737473 9.792363 -4.093775 A
2130 A -7.583840 10.245610 -4.282970 A
2131 A -7.138923 11.068420 -4.120133 A
2132 A -6.601173 11.451150 -3.432052 A
2133 A -5.826059 11.754940 -2.951467 A
2134 A -5.190881 11.712320 -2.219243 A
2135 B -4.652562 11.042020 -1.843321 B
2136 B -5.349127 10.538470 -2.291547 B
2137 B -6.271475 10.369320 -2.452788 B
2138 B -6.741465 10.356250 -1.569949 B
2139 B -6.596313 10.076070 -0.660223 B
2140 B -5.782911 10.576440 -0.756675 B
2141 B -5.566694 11.461590 -1.048563 B
2142 A -6.364894 11.703350 -1.486785 A
2143 A -6.877979 12.242730 -2.081912 A
2144 A -6.862569 12.740530 -2.899539 A
2145 A -7.236969 12.744000 -3.777388 A
2146 A -7.416496 12.409040 -4.648500 A
2147 A -7.649030 12.060220 -5.515841 A
2148 A -3.661636 -6.596330 -9.461560 A
2149 A -2.917331 -6.011887 -9.523686 A
2150 A -2.585029 -5.173628 -9.803078 A
2151 A -3.285035 -4.375614 -9.790131 A
2152 A -3.631430 -5.278067 -9.822789 A
2153 A -4.396091 -5.872022 -9.888511 A
2154 B -4.476202 -6.571837 -10.517950 B
2155 B -5.257070 -7.104098 -10.718510 B
2156 B -5.563200 -8.018106 -10.526680 B
2157 B -5.922883 -8.484719 -9.767025 B
2158 B -5.831768 -7.686920 -9.199307 B
2159 B -6.348879 -7.039458 -9.674232 B
2160 B -6.748575 -7.837635 -10.016420 B
2161 A -7.434268 -8.420403 -10.239990 A
2162 A -7.841733 -9.082799 -10.827880 A
2163 A -8.258004 -9.176328 -11.672640 A
2164 A -7.664795 -8.747472 -12.281910 A
2165 A -6.863163 -8.280843 -12.111030 A
2166 A -6.423202 -8.065269 -11.315410 A
2167 A 11.457420 0.656467 3.519316 A
2168 A 11.697240 0.131522 4.315877 A
2169 A 12.296470 -0.302836 4.943261 A
2170 A 12.867350 -0.768937 5.578385 A
2171 A 13.438190 -1.041612 4.869116 A
2172 A 12.805670 -1.758188 4.888143 A
2173 B 12.956030 -1.968729 5.806653 B
2174 B 13.538790 -2.453773 6.394427 B
2175 B 13.445620 -3.069349 5.662707 B
2176 B 13.297880 -3.605451 4.886618 B
2177 B 13.239930 -4.399950 5.455125 B
2178 B 13.299290 -5.078528 6.138843 B
2179 B -13.349990 -5.905082 5.949356 B
2180 A -13.329340 -6.480953 5.187705 A
2181 A -13.291850 -6.171648 4.282840 A
2182 A -13.013030 -5.393033 3.810540 A
2183 A -13.035040 -4.540029 4.273007 A
2184 A -12.711300 -4.642756 5.171062 A
2185 A -12.178620 -4.728617 5.970353 A
2186 A 4.261728 3.303871 -2.758552 A
2187 A 4.122512 2.517885 -2.262764 A
2188 A 3.864467 2.312520 -1.356624 A
2189 A 4.235279 1.845593 -0.558478 A
2190 A 4.870339 2.151327 0.142405 A
2191 A 4.566552 2.737598 0.814775 A
2192 B 3.908798 3.411000 0.730614 B
2193 B 3.354201 3.757152 0.034619 B
2194 B 2.936633 3.397349 -0.768740 B
2195 B 2.289481 3.477046 -1.452920 B
2196 B 1.783200 3.504008 -2.239668 B
2197 B 0.946952 3.561639 -2.605593 B
2198 B 0.881337 3.365430 -3.527472 B
2199 A 0.540287 3.986678 -4.182589 A
2200 A 0.286081 4.888025 -4.452309 A
2201 A 0.043545 5.045034 -5.390903 A
2202 A -0.488687 4.998473 -6.180403 A
2203 A -1.267015 5.183414 -6.675765 A
2204 A -1.048282 5.760918 -7.424750 A
2205 A 2.915543 -0.959463 -2.638955 A
2206 A 2.054124 -1.328109 -2.811306 A
2207 A 2.468894 -2.088743 -3.208089 A
2208 A 3.103145 -2.809273 -3.252188 A
2209 A 3.476812 -3.536266 -2.721577 A
2210 A 3.110888 -4.294683 -2.254556 A
2211 B 2.356055 -4.793380 -2.516663 B
2212 B 1.730582 -5.472217 -2.701828 B
2213 B 0.905594 -5.911654 -2.725060 B
2214 B 0.051832 -5.566772 -2.471607 B
2215 B -0.717866 -5.793657 -2.985320 B
2216 B -1.541169 -5.470769 -3.388710 B
2217 B -2.473508 -5.299890 -3.581952 B
2218 A -2.345871 -4.643539 -4.252199 A
2219 A -1.392515 -4.830119 -4.236309 A
2220 A -1.739519 -5.620495 -4.635794 A
2221 A -2.350446 -6.386806 -4.695791 A
2222 A -2.699077 -6.956983 -5.406009 A
2223 A -2.507425 -7.827094 -5.620409 A
2224 A -7.726261 1.892508 -7.645264 A
2225 A -8.196896 1.473816 -6.907064 A
2226 A -9.111593 1.429338 -6.583282 A
2227 A -9.662039 1.090730 -7.296638 A
2228 A -9.915914 1.692200 -7.966558 A
2229 A -10.910240 1.904267 -8.135606 A
2230 B -11.720870 2.262471 -7.674634 B
2231 B -11.697010 2.570006 -6.817734 B
2232 B -10.969400 3.275778 -6.714370 B
2233 B -10.645890 3.918552 -7.405677 B
2234 B -9.708797 3.884430 -7.609975 B
2235 B -9.387605 3.674631 -6.755634 B
2236 B -8.912446 3.825437 -5.883664 B
2237 A -8.097249 3.725322 -5.436837 A
2238 A -7.303914 3.280499 -5.292732 A
2239 A -6.538765 3.411718 -5.910828 A
2240 A -6.485643 2.430372 -6.075809 A
2241 A -7.231863 2.644537 -6.585243 A
2242 A -8.178527 2.575434 -6.671651 A
2243 A -12.291080 2.123935 -5.453464 A
2244 A -12.057430 1.548997 -4.770832 A
2245 A -12.528330 1.872273 -4.069415 A
2246 A -13.335260 1.492118 -4.274367 A
2247 A 13.208980 0.837573 -3.814277 A
2248 A 13.185170 0.414446 -2.989472 A
2249 B 13.490100 0.224081 -2.165209 B
2250 B 13.157630 0.067150 -1.303350 B
2251 B 12.274180 -0.141556 -1.579904 B
2252 B 12.766060 -0.861475 -1.270591 B
2253 B 12.767740 -1.697135 -0.724317 B
2254 B 12.406580 -2.595414 -0.664728 B
2255 B 12.978370 -2.734525 0.007400 B
2256 A -13.418330 -2.840772 0.663074 A
2257 A -12.742250 -2.260984 1.161720 A
2258 A -11.751520 -2.096135 1.440698 A
2259 A -11.929090 -1.749630 0.506796 A
2260 A -12.373250 -0.870971 0.501946 A
2261 A -12.084200 -0.451430 -0.305960 A
2262 A -6.105484 -12.718850 -1.608011 A
2263 A -5.139490 -12.974850 -1.387016 A
2264 A -4.288117 -13.356430 -1.225888 A
2265 A -3.510451 13.208310 -1.512278 A
2266 A -2.869174 12.762320 -2.032414 A
2267 A -3.108607 13.520380 -2.542612 A
2268 B -3.809067 -12.996670 -2.958637 B
2269 B -4.597771 -12.388840 -3.251954 B
2270 B -4.649451 -11.749650 -3.967568 B
2271 B -4.546095 -11.634830 -4.899935 B
2272 B -4.909649 -11.938670 -5.662462 B
2273 B -5.467885 -12.709180 -5.931983 B
2274 B -6.096330 -13.350370 -5.620190 B
2275 A -6.171900 13.131420 -4.923967 A
2276 A -6.040961 12.624010 -4.163069 A
2277 A -5.060158 12.495520 -4.323547 A
2278 A -5.015510 12.995300 -5.108993 A
2279 A -4.995101 12.108250 -5.347421 A
2280 A -5.937138 11.978480 -4.961296 A
2281 A 11.024390 4.478105 -8.154902 A
2282 A 11.721100 5.117424 -8.340613 A
2283 A 11.027290 5.720951 -8.743029 A
2284 A 10.194620 5.396100 -8.473937 A
2285 A 10.863230 5.564469 -7.544386 A
2286 A 11.548800 5.084945 -6.851424 A
2287 B 11.842210 5.748840 -6.157498 B
2288 B 11.427170 6.779168 -6.662307 B
2289 B 10.712140 7.248510 -6.512500 B
2290 B 10.884440 6.635219 -5.719037 B
2291 B 11.724860 7.033814 -5.589651 B
2292 B 11.792940 6.964547 -4.609478 B
2293 B 11.339670 6.399384 -3.893468 B
2294 A 10.731440 5.665434 -3.678819 A
2295 A 10.592140 4.624832 -3.696623 A
2296 A 11.020900 4.664364 -2.849144 A
2297 A 11.339370 5.351362 -2.280135 A
2298 A 10.914770 5.694500 -1.468074 A
2299 A 10.565150 6.396827 -0.857337 A
2300 A -11.659090 -6.885075 12.866810 A
2301 A -10.879110 -6.515545 13.302910 A
2302 A -10.319880 -6.082882 -13.130720 A
2303 A -10.693730 -5.391984 -12.595230 A
2304 A -11.477280 -5.094028 -13.081000 A
2305 A -12.374250 -4.844151 -13.281670 A
2306 B -13.323680 -4.925968 -13.158560 B
2307 B 13.121000 -5.402489 -12.667480 B
2308 B 12.894990 -6.287349 -12.374380 B
2309 B 12.259410 -7.025933 -12.354160 B
2310 B 11.533940 -7.663191 -12.311520 B
2311 B 11.513960 -7.282001 -11.410370 B
2312 B 11.583720 -6.403161 -10.993340 B
2313 A 11.890400 -5.532240 -11.317920 A
2314 A 12.612000 -4.960835 -11.551530 A
2315 A 13.440020 -4.485525 -11.841050 A
2316 A -12.728130 -4.237807 -12.006370 A
2317 A -12.798490 -5.189109 -11.895420 A
2318 A -12.975540 -6.098772 -12.196120 A
2319 A -3.876800 4.872281 10.951430 A
2320 A -3.790560 3.931115 10.883650 A
2321 A -4.312264 3.337031 10.339820 A
2322 A -4.115697 4.170174 9.925288 A
2323 A -3.828103 4.446879 9.039418 A
2324 A -4.300990 4.914703 8.314446 A
2325 B -4.475900 5.608385 9.011798 B
2326 B -4.979442 4.891969 9.416887 B
2327 B -5.002326 3.939659 9.391241 B
2328 B -5.078857 2.998597 9.293897 B
2329 B -5.077735 2.079048 9.588176 B
2330 B -4.375319 1.441356 9.789411 B
2331 B -3.453515 1.202696 9.890744 B
2332 A -2.507444 1.222025 10.040600 A
2333 A -2.338917 1.603914 9.173641 A
2334 A -3.170002 1.268510 8.799621 A
2335 A -3.835470 0.698472 8.365776 A
2336 A -4.244592 0.469675 9.193523 A
2337 A -4.271782 -0.051160 9.987052 A
2338 A -4.013597 -8.500581 3.058881 A
2339 A -4.159410 -8.097347 3.963536 A
2340 A -3.961636 -7.181495 4.015165 A
2341 A -4.057519 -6.963711 3.066580 A
2342 A -4.593359 -6.537590 2.488051 A
2343 A -4.284249 -6.387316 1.583281 A
2344 B -4.518722 -6.890920 0.852499 B
2345 B -4.344144 -7.250267 -0.035739 B
2346 B -3.916018 -7.872613 -0.755446 B
2347 B -3.885358 -8.731041 -0.217328 B
2348 B -4.445452 -9.562158 -0.123633 B
2349 B -4.903405 -10.453620 -0.364397 B
2350 B -5.006145 -11.183880 0.148386 B
2351 A -5.489594 -11.928520 -0.469904 A
2352 A -6.157154 -11.655530 -1.058685 A
2353 A -7.183420 -11.426520 -0.915881 A
2354 A -7.038731 -11.186840 -1.838654 A
2355 A -6.263830 -10.766540 -2.183630 A
2356 A -5.729719 -10.038390 -2.543845 A
2357 A -5.149043 4.128488 -0.245225 A
2358 A -4.487812 4.673665 0.224611 A
2359 A -4.176406 4.368153 1.105593 A
2360 A -4.336447 3.952572 1.948734 A
2361 A -5.089632 4.134513 2.484797 A
2362 A -5.800733 4.299828 1.871474 A
2363 B -6.371670 4.401940 1.122917 B
2364 B -6.473320 3.502230 1.450055 B
2365 B -6.716520 3.184400 2.342258 B
2366 B -6.057499 2.737533 2.913635 B
2367 B -5.546367 3.322767 3.471984 B
2368 B -5.907240 4.190731 3.651222 B
2369 B -6.255396 4.939890 3.187134 B
2370 A -6.155740 5.568374 2.462630 A
2371 A -5.895511 6.149037 1.753619 A
2372 A -5.525434 5.836322 0.917929 A
2373 A -4.729148 5.892797 0.373803 A
2374 A -3.855081 5.999949 0.794352 A
2375 A -3.422924 5.129869 0.664847 A
2376 A 2.353379 -13.138470 -3.886892 A
2377 A 1.793051 13.172150 -3.779746 A
2378 A 0.976073 12.738830 -3.610284 A
2379 A 1.153052 13.508210 -3.031270 A
2380 A 1.364956 12.840670 -2.385584 A
2381 A 1.419605 12.030250 -2.908224 A
2382 B 1.403669 11.555430 -2.086364 B
2383 B 1.486859 10.887460 -1.402115 B
2384 B 1.231844 10.095470 -1.006512 B
2385 B 2.051543 10.043920 -1.525980 B
2386 B 2.839090 10.411930 -1.095001 B
2387 B 3.073206 10.571720 -0.196530 B
2388 B 3.211259 10.712430 0.775607 B
2389 A 2.792815 10.974070 1.580940 A
2390 A 2.083532 10.288700 1.646507 A
2391 A 1.476021 9.999103 0.948709 A
2392 A 0.539743 10.246100 0.741120 A
2393 A -0.262939 10.818580 0.777476 A
2394 A -1.061312 11.370960 0.655023 A
2395 A -0.268238 12.606530 -0.927619 A
2396 A -0.105506 12.148250 -0.089744 A
2397 A 0.837263 12.059600 0.117542 A
2398 A 1.806338 12.085160 0.013563 A
2399 A 2.083349 11.850380 -0.898116 A
2400 A 2.513264 12.217890 -1.651618 A
2401 B 3.145509 12.098150 -2.347694 B
2402 B 3.757666 12.764850 -2.014032 B
2403 B 3.924093 12.609980 -1.038457 B
2404 B 3.066053 13.013530 -0.923497 B
2405 B 3.764723 -13.467590 -1.123691 B
2406 B 3.005869 -12.985400 -1.493398 B
2407 B 2.785321 -12.104190 -1.815725 B
2408 A 2.788136 -11.271470 -1.317052 A
2409 A 1.977361 -10.797400 -1.305833 A
2410 A 1.788125 -9.966207 -1.717982 A
2411 A 1.913037 -9.003890 -1.963563 A
2412 A 1.309978 -8.355225 -1.578183 A
2413 A 0.349692 -8.424600 -1.459432 A
2414 A 8.931095 -5.674579 8.340020 A
2415 A 9.573950 -4.974033 8.375918 A
2416 A 10.084190 -4.210655 8.516129 A
2417 A 10.846120 -4.697769 8.865111 A
2418 A 11.675470 -4.606149 9.289058 A
2419 A 11.849840 -5.132380 10.108760 A
2420 B 11.536530 -4.866449 11.037970 B
2421 B 11.495550 -4.521515 11.954030 B
2422 B 10.974990 -4.335654 12.749540 B
2423 B 10.719670 -5.374827 12.760000 B
2424 B 10.399230 -6.291477 12.730760 B
2425 B 9.610916 -5.491469 12.456200 B
2426 B 9.114824 -4.779838 13.014720 B
2427 A 8.723620 -4.275205 -13.474660 A
2428 A 7.978300 -4.715973 13.372920 A
2429 A 7.796059 -4.973777 12.443040 A
2430 A 7.168499 -5.754529 11.805620 A
2431 A 7.760174 -6.039201 11.028990 A
2432 A 8.009406 -5.511181 10.377100 A
2433 A -5.586677 -0.412138 -0.788933 A
2434 A -5.755604 0.273619 -1.460626 A
2435 A -6.132399 0.783677 -2.234517 A
2436 A -7.004850 1.070966 -1.915322 A
2437 A -7.203434 2.009554 -1.667156 A
2438 A -6.979437 1.846649 -0.787974 A
2439 B -7.225370 1.478760 0.040934 B
2440 B -7.401274 0.665050 0.555335 B
2441 B -7.527613 -0.231087 0.285654 B
2442 B -6.547524 -0.297109 0.188353 B
2443 B -5.836645 0.269118 0.004594 B
2444 B -6.021881 0.342163 0.895788 B
2445 B -5.842413 0.260977 1.876421 B
2446 A -5.594096 1.084894 1.462588 A
2447 A -5.400816 1.978096 1.333137 A
2448 A -5.669281 2.814539 0.950157 A
2449 A -6.133649 3.147005 0.144158 A
2450 A -5.826113 2.327912 -0.199309 A
2451 A -5.346423 1.606758 0.133782 A
2452 A -9.057154 2.879124 -3.812701 A
2453 A -8.394865 2.282984 -4.154869 A
2454 A -7.886166 1.942680 -4.882706 A
2455 A -8.548497 1.678539 -5.645397 A
2456 A -9.068764 2.521309 -5.671585 A
2457 A -9.560056 3.134818 -5.076884 A
2458 B -9.383198 3.739814 -4.398171 B
2459 B -9.944670 4.490827 -4.568383 B
2460 B -10.064730 5.261349 -5.128212 B
2461 B -10.220270 4.758265 -5.910652 B
2462 B -10.222540 3.808855 -5.733193 B
2463 B -10.803910 3.825582 -4.909679 B
2464 B -10.791510 3.685337 -3.974778 B
2465 A -10.709430 4.545661 -3.671438 A
2466 A -10.985270 5.297977 -3.146761 A
2467 A -11.657600 5.662691 -2.571259 A
2468 A -12.547800 5.989509 -2.295872 A
2469 A -13.386940 6.426340 -2.533104 A
2470 A 13.108770 7.200238 -2.702553 A
2471 A 1.572284 0.137971 -8.194071 A
2472 A 2.220297 -0.546150 -8.100595 A
2473 A 3.113593 -0.847065 -8.137531 A
2474 A 3.567267 -1.690692 -8.328707 A
2475 A 3.237487 -2.130130 -7.574085 A
2476 A 2.850030 -2.256276 -6.722311 A
2477 B 2.174517 -1.683536 -7.137289 B
2478 B 2.197364 -0.739850 -7.052215 B
2479 B 2.523961 -0.483727 -6.169778 B
2480 B 2.834386 -0.926474 -5.416710 B
2481 B 3.612980 -1.797287 -5.392847 B
2482 B 4.283381 -1.528418 -4.676911 B
2483 B 3.516744 -0.893860 -4.635875 B
2484 A 3.317693 0.061476 -4.758456 A
2485 A 3.318177 1.045469 -4.663046 A
2486 A 3.189243 1.935152 -4.963557 A
2487 A 3.596362 2.643775 -5.566339 A
2488 A 2.783706 2.680542 -6.097368 A
2489 A 1.982252 3.261789 -6.169787 A
2490 A -13.145130 -4.233560 6.449466 A
2491 A -12.703730 -3.443476 6.145090 A
2492 A -11.830700 -3.218930 5.830966 A
2493 A -10.916310 -3.237443 5.519884 A
2494 A -10.719460 -4.151981 5.314504 A
2495 A -9.997906 -4.722598 5.569443 A
2496 B -9.126955 -5.132714 5.619493 B
2497 B -8.242496 -4.799023 5.567526 B
2498 B -7.960379 -4.081271 6.138346 B
2499 B -7.907276 -3.133225 6.231402 B
2500 B -7.887754 -2.164885 6.081599 B
2501 B -8.511683 -1.850907 5.417593 B
2502 B -8.927751 -1.792240 4.543813 B
2503 A -9.561506 -2.141053 3.880314 A
2504 A -10.323390 -2.699077 3.570948 A
2505 A -10.117070 -3.220506 2.769894 A
2506 A -9.251553 -3.134056 2.398269 A
2507 A -8.809269 -2.322413 2.581406 A
2508 A -8.726788 -1.683722 1.862756 A
2509 A -6.704536 -8.681066 -6.274924 A
2510 A -5.817083 -9.088266 -6.328991 A
2511 A -5.835349 -9.785011 -7.010614 A
2512 A -6.029111 -10.666070 -6.601344 A
2513 A -5.164990 -11.027180 -6.306900 A
2514 A -4.696863 -11.623710 -6.937576 A
2515 B -4.954676 -12.273800 -7.585450 B
2516 B -5.711823 -11.699330 -7.693920 B
2517 B -6.257490 -10.940030 -7.896089 B
2518 B -7.140960 -10.713520 -7.591019 B
2519 B -7.754316 -11.358730 -7.931149 B
2520 B -8.193669 -12.186700 -7.926048 B
2521 B -8.462320 -13.071570 -7.609654 B
2522 A -8.569707 13.158300 -7.196961 A
2523 A -9.010777 12.802850 -6.422731 A
2524 A -9.554857 12.996890 -5.632125 A
2525 A -9.685458 13.021690 -4.670998 A
2526 A -9.038780 12.905660 -3.971480 A
2527 A -8.494822 12.131830 -3.969942 A
2528 A -10.839110 -8.745218 4.597455 A
2529 A -10.967100 -9.682287 4.778047 A
2530 A -10.674410 -10.400080 4.224821 A
2531 A -10.770830 -11.152600 3.620323 A
2532 A -10.273040 -11.366290 2.818284 A
2533 A -10.219270 -11.967900 2.047138 A
2534 B -10.769840 -12.597370 1.574227 B
2535 B -11.405190 -13.257260 1.314368 B
2536 B -11.286430 13.402460 0.460415 B
2537 B -11.708560 12.597730 0.170984 B
2538 B -12.147510 11.848450 0.516532 B
2539 B -11.847750 12.302360 1.327178 B
2540 B -11.011220 11.979700 0.987942 B
2541 A -10.725030 11.286060 0.429473 A
2542 A -10.053540 11.718680 -0.103480 A
2543 A -9.088354 11.787490 -0.212015 A
2544 A -8.943954 11.219390 0.551355 A
2545 A -8.367679 10.656850 1.086571 A
2546 A -7.743046 10.090280 1.546462 A
2547 A -4.252171 -10.850400 8.940042 A
2548 A -3.504863 -10.506660 9.477886 A
2549 A -3.083957 -9.727936 9.116168 A
2550 A -2.256586 -10.170900 8.893227 A
2551 A -1.739805 -10.818050 8.443299 A
2552 A -0.860392 -11.090450 8.184922 A
2553 B -0.024779 -10.794790 8.570636 B
2554 B 0.417346 -10.341330 9.299333 B
2555 B 0.913409 -9.678734 9.823364 B
2556 B 0.536481 -9.168703 9.082754 B
2557 B 0.061375 -8.876231 8.322832 B
2558 B 0.555516 -8.949117 7.513354 B
2559 B 1.157085 -9.209954 6.798506 B
2560 A 1.950610 -8.815876 6.413873 A
2561 A 2.517313 -8.156612 5.952872 A
2562 A 3.272973 -7.802668 5.520843 A
2563 A 4.166328 -7.378920 5.374930 A
2564 A 4.192098 -6.648849 4.729296 A
2565 A 5.139425 -6.625978 4.839329 A
2566 A -9.498448 -13.266150 -2.218537 A
2567 A -8.522202 -13.454460 -2.123296 A
2568 A -7.677393 -13.204650 -1.745260 A
2569 A -6.893904 13.404980 -1.502067 A
2570 A -7.586288 12.785190 -1.270959 A
2571 A -8.418515 12.454770 -1.661732 A
2572 B -8.418047 12.147670 -2.575462 B
2573 B -7.975986 11.469490 -3.114115 B
2574 B -7.662470 10.569090 -3.300283 B
2575 B -7.387096 10.796940 -2.375479 B
2576 B -7.482367 11.152990 -1.486184 B
2577 B -7.310984 11.605010 -0.681642 B
2578 B -7.157561 12.440670 -0.219490 B
2579 A -6.663980 13.241710 -0.107319 A
2580 A -5.771521 13.545850 0.027972 A
2581 A -5.098517 13.178760 0.625206 A
2582 A -4.732774 12.275880 0.640252 A
2583 A -5.244489 11.599300 0.229953 A
2584 A -6.010108 11.051710 0.207012 A
2585 A 2.489613 11.023310 4.344595 A
2586 A 2.974900 11.067660 3.493531 A
2587 A 2.461498 10.856930 2.675428 A
2588 A 1.591598 10.634320 3.003096 A
2589 A 2.240402 10.226250 3.498507 A
2590 A 2.296230 9.648431 4.282466 A
2591 B 1.558782 9.022466 4.370586 B
2592 B 0.796356 8.896547 4.864962 B
2593 B 0.720014 8.154963 5.482817 B
2594 B 0.323405 7.328752 5.698436 B
2595 B 1.196394 7.077506 5.410382 B
2596 B 1.597476 6.902666 4.534903 B
2597 B 1.585994 6.482592 3.662062 B
2598 A 1.539408 5.571695 3.230744 A
2599 A 1.534240 4.633691 3.452290 A
2600 A 2.121748 3.923093 3.240499 A
2601 A 1.842533 3.001991 3.336415 A
2602 A 1.173977 2.449668 3.697001 A
2603 A 0.803174 1.524569 3.866597 A
2604 A -1.367130 3.499460 -6.891620 A
2605 A -1.165477 3.447555 -7.814381 A
2606 A -1.519304 3.880099 -8.582910 A
2607 A -1.776894 4.763377 -8.893216 A
2608 A -1.727576 4.696858 -7.914359 A
2609 A -2.197860 3.880150 -7.683672 A
2610 B -2.328358 2.966520 -7.453468 B
2611 B -2.257950 2.675655 -6.537546 B
2612 B -3.122936 2.578202 -6.085446 B
2613 B -3.213049 3.441046 -6.543901 B
2614 B -3.874067 3.697274 -7.151264 B
2615 B -4.544955 3.064705 -6.865831 B
2616 B -5.467154 2.959029 -6.659656 B
2617 A -5.995615 3.742804 -6.828257 A
2618 A -6.806180 3.807636 -7.425650 A
2619 A -6.986134 2.879133 -7.871248 A
2620 A -6.814923 3.590103 -8.511231 A
2621 A -6.408609 4.508434 -8.421054 A
2622 A -5.486050 4.598658 -8.367873 A
2623 A 11.678950 -9.961068 9.374927 A
2624 A 12.511330 -9.811135 8.915705 A
2625 A 13.370840 -10.126650 8.592566 A
2626 A -13.270050 -9.302204 8.430543 A
2627 A 13.139330 -8.812140 8.885355 A
2628 A 12.781830 -8.783157 7.994693 A
2629 B 12.788190 -8.206116 7.224441 B
2630 B 13.540650 -8.354761 6.640036 B
2631 B -12.653620 -8.661266 6.496059 B
2632 B -12.109830 -9.374868 6.834939 B
2633 B -12.445870 -8.891453 7.619538 B
2634 B -12.999250 -8.173022 7.926466 B
2635 B 13.408850 -7.696687 8.410398 B
2636 A 13.275460 -7.772521 9.350771 A
2637 A -13.270600 -7.880912 10.129100 A
2638 A -12.727210 -7.604953 10.857210 A
2639 A -11.899480 -8.003130 11.133100 A
2640 A -11.298070 -7.614925 11.783310 A
2641 A -10.423790 -7.646800 12.206700 A
2642 A -9.862392 3.859641 -13.421090 A
2643 A -10.082850 2.952905 -13.222140 A
2644 A -10.177720 2.700843 12.950050 A
2645 A -9.326312 2.314202 13.058000 A
2646 A -8.671813 1.782293 12.550920 A
2647 A -8.247058 1.674728 13.364490 A
2648 B -8.710859 1.286362 -12.981450 B
2649 B -9.154944 0.483973 -13.067840 B
2650 B -9.722777 -0.231275 -12.765610 B
2651 B -10.309180 -0.995810 -12.627710 B
2652 B -10.671790 -1.765034 -13.080050 B
2653 B -11.061670 -1.562378 13.140910 B
2654 B -10.688330 -1.377755 12.281380 B
2655 A -10.761910 -0.577936 11.686360 A
2656 A -10.940610 0.380815 11.569960 A
2657 A -11.080100 1.249935 11.121790 A
2658 A -11.318620 1.987573 10.575170 A
2659 A -11.197340 2.094844 9.620861 A
2660 A -10.752680 2.615131 8.989547 A
2661 A -11.501660 12.645810 -11.993320 A
2662 A -11.556650 -13.501950 -11.832420 A
2663 A -11.349750 -12.695710 -12.285810 A
2664 A -10.717900 -13.292580 -12.717270 A
2665 A -11.094780 13.102670 -13.234050 A
2666 A -11.345020 12.582930 13.098570 A
2667 B -11.076950 11.684650 12.813330 B
2668 B -11.797080 11.077980 12.819000 B
2669 B -12.657780 10.697430 12.974710 B
2670 B 13.548640 10.262310 12.911650 B
2671 B 13.202230 9.379325 13.079740 B
2672 B -13.132290 8.852097 13.347590 B
2673 B -12.376600 8.282876 13.309470 B
2674 A -12.180510 7.645248 12.647560 A
2675 A -11.676490 7.457256 11.844000 A
2676 A -10.907570 8.035341 11.936510 A
2677 A -10.110260 8.465176 12.207800 A
2678 A -9.785394 8.793926 13.050260 A
2679 A -9.407731 9.378638 -13.405100 A
2680 A 4.130950 13.463610 -10.101820 A
2681 A 4.153748 13.440430 -9.123482 A
2682 A 3.838446 12.563320 -8.842188 A
2683 A 4.371889 11.778270 -8.556840 A
2684 A 3.779618 11.894460 -7.766424 A
2685 A 3.047505 11.536210 -7.214677 A
2686 B 2.626357 11.899910 -6.431421 B
2687 B 2.635805 11.640340 -5.503964 B
2688 B 2.766003 11.748570 -4.567576 B
2689 B 2.180313 12.500150 -4.444354 B
2690 B 1.531945 13.066640 -4.797119 B
2691 B 0.931931 -13.508400 -4.269990 B
2692 B 1.279813 -12.606000 -4.104471 B
2693 A 1.622733 -12.275040 -4.929048 A
2694 A 1.755886 -12.272290 -5.932700 A
2695 A 1.906872 -11.628610 -6.619447 A
2696 A 2.211987 -10.829630 -7.096087 A
2697 A 3.093362 -11.141300 -7.390387 A
2698 A 3.737517 -11.706470 -7.840773 A
2699 A -10.922960 -7.692556 10.734510 A
2700 A -11.671400 -7.576390 10.133440 A
2701 A -12.063000 -8.277643 9.583688 A
2702 A -12.473200 -9.127221 9.397943 A
2703 A -12.773140 -10.025530 9.550671 A
2704 A -12.750880 -10.941340 9.818034 A
2705 B -12.585850 -11.642990 10.453460 B
2706 B -13.086220 -11.207370 11.158710 B
2707 B -13.179350 -10.376310 10.689370 B
2708 B 13.277200 -9.887320 10.176700 B
2709 B 12.514520 -10.405170 9.866913 B
2710 B 11.711980 -10.818360 10.228400 B
2711 B 11.660540 -10.875700 11.188020 B
2712 A 12.152480 -10.760250 12.012600 A
2713 A 12.946750 -10.359800 12.384220 A
2714 A -13.323140 -10.761920 12.591690 A
2715 A -12.622980 -11.055320 13.184650 A
2716 A -13.166090 -10.715720 -13.210100 A
2717 A 13.019580 -10.486790 -13.034000 A
2718 A -9.402230 4.255361 12.223370 A
2719 A -8.993540 3.772012 12.905800 A
2720 A -8.418716 3.603828 -13.490950 A
2721 A -7.510283 3.451780 -13.119750 A
2722 A -7.112666 2.582746 -13.105580 A
2723 A -6.226746 2.091628 -13.134390 A
2724 B -6.943152 1.441304 -13.099660 B
2725 B -7.242011 0.572425 -12.836650 B
2726 B -7.880129 -0.120408 -13.135050 B
2727 B -7.430637 -0.954627 -13.293800 B
2728 B -6.935591 -1.742936 -13.071150 B
2729 B -7.795263 -1.848335 -12.632280 B
2730 B -8.559020 -2.288025 -12.223210 B
2731 A -8.087164 -3.025471 -12.644580 A
2732 A -7.734367 -3.818453 -13.019160 A
2733 A -8.214162 -4.148612 -12.235660 A
2734 A -8.828401 -3.456369 -11.952960 A
2735 A -9.462253 -2.777801 -11.710560 A
2736 A -10.084670 -2.142072 -11.340650 A
2737 A 4.023587 -4.054330 7.398219 A
2738 A 4.304577 -4.014505 6.470518 A
2739 A 4.060691 -4.230037 5.564609 A
2740 A 4.309587 -3.683738 4.812346 A
2741 A 4.014196 -2.762871 4.896797 A
2742 A 3.900157 -2.166303 5.659130 A
2743 B 3.854446 -2.073999 6.616050 B
2744 B 3.343380 -2.920613 6.631938 B
2745 B 2.586015 -3.370581 6.982558 B
2746 B 2.062441 -4.188180 7.120015 B
2747 B 1.639534 -4.931592 7.550275 B
2748 B 0.979470 -5.586756 7.260490 B
2749 B 0.154449 -5.701636 6.829887 B
2750 A 0.125928 -5.918380 5.867775 A
2751 A 0.735916 -5.579830 5.227660 A
2752 A 0.859175 -6.518018 5.048211 A
2753 A 0.698827 -7.189018 4.356935 A
2754 A 0.579105 -7.971210 3.826534 A
2755 A 0.006054 -8.676566 3.553162 A
2756 A -10.204430 12.712660 10.809570 A
2757 A -10.747830 12.271370 10.190440 A
2758 A -10.832360 11.960930 9.318205 A
2759 A -10.783190 12.163410 8.373319 A
2760 A -10.455310 12.614490 7.586627 A
2761 A -10.302710 12.734100 6.634601 A
2762 B -10.545600 13.032030 5.763016 B
2763 B -11.303660 13.316480 5.223917 B
2764 B -11.843200 -13.175020 4.693812 B
2765 B -12.214440 -12.519070 5.268032 B
2766 B -11.768440 -12.878230 6.006302 B
2767 B -11.794860 13.322180 6.288835 B
2768 B -12.208110 12.432920 6.216452 B
2769 A -12.996940 11.872200 6.315898 A
2770 A -13.396010 11.030500 6.146052 A
2771 A -13.340290 10.246780 5.578011 A
2772 A -12.602740 9.665748 5.319993 A
2773 A -12.034000 9.035159 5.761364 A
2774 A -11.394440 9.756170 5.883166 A
2775 A 11.335740 -1.161842 -3.092829 A
2776 A 10.542480 -0.707503 -3.357094 A
2777 A 9.680444 -0.547460 -2.991393 A
2778 A 9.146523 0.005133 -2.386351 A
2779 A 9.334407 0.669404 -1.689794 A
2780 A 10.080200 0.839918 -1.161565 A
2781 B 10.642350 1.305909 -0.567265 B
2782 B 10.509160 2.252285 -0.381892 B
2783 B 10.160920 3.110488 -0.261369 B
2784 B 10.687000 3.447201 -0.976919 B
2785 B 10.839650 3.263394 -1.899858 B
2786 B 10.289870 3.094126 -2.676036 B
2787 B 10.188170 2.819871 -3.578835 B
2788 A 11.026450 3.254826 -3.784964 A
2789 A 11.782720 3.800614 -3.569994 A
2790 A 12.290560 4.543559 -3.925861 A
2791 A 12.703170 5.419429 -3.774608 A
2792 A 12.834070 6.330302 -3.437009 A
2793 A 12.009550 6.214739 -2.969330 A
2794 A 12.608470 -3.955586 9.320047 A
2795 A 13.510300 -4.256722 9.360895 A
2796 A -12.917020 -3.796610 9.892735 A
2797 A -12.385600 -3.111028 10.291670 A
2798 A -12.365480 -3.450027 11.181620 A
2799 A -12.526770 -4.214846 11.707230 A
2800 B -11.562050 -4.096588 11.638120 B
2801 B -10.605650 -3.971382 11.664500 B
2802 B -9.639787 -3.920602 11.532560 B
2803 B -8.775162 -3.637191 11.174030 B
2804 B -8.678195 -2.728355 11.455750 B
2805 B -9.045162 -2.149422 12.129650 B
2806 B -9.853579 -1.991613 12.599630 B
2807 A -10.274240 -2.482590 13.303350 A
2808 A -10.999640 -3.046454 -13.414380 A
2809 A -10.634720 -3.911429 -13.137830 A
2810 A -9.903248 -4.428485 -12.873200 A
2811 A -9.358961 -3.888793 -13.469730 A
2812 A -9.022135 -3.723699 12.777210 A
2813 A 0.953301 6.949401 -11.492140 A
2814 A 0.593593 6.565015 -12.269010 A
2815 A 0.139009 6.313541 -13.072390 A
2816 A 0.045470 5.890896 13.166040 A
2817 A 0.107069 5.258549 12.447490 A
2818 A -0.737973 4.822562 12.585040 A
2819 B -1.039503 4.246640 13.275070 B
2820 B -0.283457 3.647995 13.368020 B
2821 B -0.664395 2.790444 13.098540 B
2822 B 0.030694 2.086788 13.094070 B
2823 B 0.631470 1.454299 13.514740 B
2824 B 1.169956 0.671665 13.422930 B
2825 B 1.143357 0.140535 12.598520 B
2826 A 0.478640 0.693435 12.098840 A
2827 A 0.646441 1.217146 11.294110 A
2828 A 1.489737 1.549781 11.075130 A
2829 A 1.757991 1.169954 10.235690 A
2830 A 1.440446 0.346667 10.798800 A
2831 A 0.625288 -0.114586 10.389490 A
2832 A 6.082876 -4.750407 -0.361267 A
2833 A 5.959834 -4.446281 0.547587 A
2834 A 6.022084 -3.955856 1.381168 A
2835 A 5.481844 -3.181895 1.561367 A
2836 A 5.862168 -2.417392 1.180679 A
2837 A 6.539659 -1.793469 0.861980 A
2838 B 6.708997 -0.974768 0.377536 B
2839 B 6.353328 -0.124347 0.079268 B
2840 B 5.694757 -0.367350 0.762349 B
2841 B 4.722188 -0.382516 0.782641 B
2842 B 3.819408 -0.704325 0.973833 B
2843 B 3.235032 -0.284687 1.621365 B
2844 B 3.597604 0.245697 2.340283 B
2845 A 3.919657 -0.315327 3.073746 A
2846 A 4.613416 -0.927683 2.752229 A
2847 A 5.248372 -0.943973 2.015408 A
2848 A 5.654518 -1.419144 1.286231 A
2849 A 5.606446 -1.831414 0.384439 A
2850 A 6.043778 -2.685287 0.197343 A
2851 A 0.257332 1.947539 1.543762 A
2852 A 0.843409 2.460128 0.974236 A
2853 A 1.255321 2.754283 0.151704 A
2854 A 1.286988 3.438591 0.809716 A
2855 A 1.577293 3.078505 1.636050 A
2856 A 2.320710 3.667229 1.580028 A
2857 B 1.847841 4.435930 1.664451 B
2858 B 1.025036 4.672050 1.257900 B
2859 B 0.347428 4.019805 1.084471 B
2860 B 0.445827 3.775645 1.979753 B
2861 B 0.370486 3.989128 2.996508 B
2862 B 0.505028 3.375802 3.738555 B
2863 B 0.081845 2.908369 3.046742 B
2864 A -0.284433 2.671330 3.921056 A
2865 A -1.118910 2.238547 4.160926 A
2866 A -1.577289 2.104635 3.362477 A
2867 A -1.326002 1.940080 2.409130 A
2868 A -1.542291 2.115701 1.504038 A
2869 A -0.742395 2.418531 1.136017 A
2870 A 7.422808 3.642063 8.647401 A
2871 A 7.459223 4.570995 8.919207 A
2872 A 7.350027 5.517494 8.876071 A
2873 A 7.971115 6.201275 8.605740 A
2874 A 7.138441 6.511897 8.198987 A
2875 A 6.224689 6.306759 8.095477 A
2876 B 5.648348 5.995597 7.375103 B
2877 B 5.027125 5.259777 7.244170 B
2878 B 4.290864 4.713937 6.894576 B
2879 B 3.861115 4.718490 6.053640 B
2880 B 3.829007 4.740319 5.092800 B
2881 B 4.203601 4.911135 4.225102 B
2882 B 4.837110 5.610510 3.995378 B
2883 A 5.068307 6.404093 4.480001 A
2884 A 4.718793 6.343689 5.377306 A
2885 A 4.049047 6.034341 6.005227 A
2886 A 3.199113 5.645356 6.216245 A
2887 A 2.307497 5.369252 6.527127 A
2888 A 1.630939 4.730545 6.821122 A
2889 A 7.710682 -8.814978 -6.840881 A
2890 A 7.496952 -7.910118 -7.057174 A
2891 A 7.618731 -7.063124 -6.640059 A
2892 A 7.920737 -6.387280 -5.987738 A
2893 A 7.959228 -6.927174 -5.203032 A
2894 A 8.498514 -7.307137 -4.508062 A
2895 B 9.300500 -7.683910 -4.155487 B
2896 B 10.035870 -8.273344 -3.883969 B
2897 B 10.756870 -7.947225 -4.425910 B
2898 B 11.368690 -7.207464 -4.521975 B
2899 B 12.139490 -7.056920 -3.971584 B
2900 B 12.081370 -6.318361 -3.360800 B
2901 B 12.456340 -5.953123 -2.569649 B
2902 A 12.911070 -5.901548 -1.728902 A
2903 A -13.487340 -6.288054 -1.206784 A
2904 A -12.883710 -6.301610 -1.938795 A
2905 A -13.384510 -6.528128 -2.776203 A
2906 A -13.438570 -6.971980 -3.659349 A
2907 A -12.731540 -6.358213 -3.606607 A
2908 A -0.274997 -4.308871 5.116588 A
2909 A 0.485922 -3.830743 5.480117 A
2910 A 0.602410 -4.625753 5.992857 A
2911 A 1.162552 -5.356378 6.221166 A
2912 A 1.734978 -6.037258 6.538396 A
2913 A 1.854583 -6.939209 6.858560 A
2914 B 2.617650 -7.471226 7.097427 B
2915 B 3.534548 -7.074233 7.154525 B
2916 B 3.799361 -6.145618 7.005481 B
2917 B 3.276069 -5.634246 6.364679 B
2918 B 2.879092 -6.326454 5.893776 B
2919 B 2.404863 -7.182977 5.691759 B
2920 B 1.517344 -7.627726 5.740236 B
2921 A 0.660988 -7.230629 5.909232 A
2922 A 0.077175 -7.098222 6.634225 A
2923 A -0.168516 -6.817536 7.561551 A
2924 A -1.094597 -6.943714 7.816134 A
2925 A -1.895039 -6.568533 8.201499 A
2926 A -2.831529 -6.445476 8.125229 A
2927 A -4.112982 -7.081334 -5.376633 A
2928 A -3.998113 -6.443740 -6.087492 A
2929 A -3.916195 -5.521528 -5.841933 A
2930 A -3.417842 -5.563836 -5.058553 A
2931 A -2.653544 -5.089710 -5.446327 A
2932 A -1.740230 -5.030910 -5.784042 A
2933 B -1.036804 -5.615503 -5.507983 B
2934 B -1.274184 -6.478983 -5.879837 B
2935 B -1.948317 -7.004280 -6.224167 B
2936 B -2.307471 -7.594079 -6.906582 B
2937 B -2.634587 -8.492611 -6.654727 B
2938 B -3.433174 -8.805963 -6.274402 B
2939 B -4.231399 -8.600443 -6.899226 B
2940 A -4.888621 -8.018018 -7.376969 A
2941 A -5.827904 -8.040962 -7.051814 A
2942 A -5.525198 -8.061925 -6.156396 A
2943 A -5.585535 -7.161891 -6.487997 A
2944 A -5.551812 -6.266851 -6.922044 A
2945 A -5.493481 -5.722091 -7.785621 A
2946 A -9.106999 -7.401994 -2.137336 A
2947 A -9.022075 -6.738060 -2.840496 A
2948 A -9.144541 -5.771743 -2.731756 A
2949 A -9.124341 -5.099554 -2.046268 A
2950 A -9.824640 -4.493713 -1.771461 A
2951 A -10.610600 -4.670351 -2.297976 A
2952 B -10.920560 -5.415455 -2.827549 B
2953 B -10.703960 -5.591872 -3.737851 B
2954 B -10.621670 -5.578812 -4.693011 B
2955 B -10.496920 -5.162827 -5.531704 B
2956 B -10.317110 -4.321115 -5.999989 B
2957 B -10.066040 -3.388361 -5.822587 B
2958 B -9.966912 -2.498996 -5.448400 B
2959 A -10.877530 -2.213089 -5.677310 A
2960 A -11.223620 -2.924024 -6.265009 A
2961 A -11.502450 -3.204117 -5.376985 A
2962 A -11.926110 -3.103925 -4.524028 A
2963 A -11.119640 -3.494917 -4.189645 A
2964 A -10.362570 -3.099696 -4.640689 A
2965 A 1.728404 11.719200 2.842438 A
2966 A 1.530104 12.684640 2.789924 A
2967 A 1.448139 -13.466660 2.725450 A
2968 A 2.102860 -12.777610 2.881033 A
2969 A 2.419646 -12.331570 3.700126 A
2970 A 3.170678 -11.977830 4.163573 A
2971 B 4.002563 -12.234810 4.619717 B
2972 B 3.907921 -12.299510 5.570883 B
2973 B 3.151105 -12.454180 6.142726 B
2974 B 2.206473 -12.357780 6.316587 B
2975 B 2.068352 -12.588410 5.383006 B
2976 B 2.287904 -13.472060 5.142012 B
2977 B 1.557463 13.058150 5.410731 B
2978 A 0.750211 13.130970 4.878535 A
2979 A 0.133187 -13.463360 4.325297 A
2980 A -0.406419 -13.002080 3.672879 A
2981 A -0.730607 13.465070 3.012308 A
2982 A -1.178596 12.617280 3.243695 A
2983 A -1.046847 12.026820 3.989919 A
2984 A -13.024440 12.169030 1.595986 A
2985 A -13.012420 12.954770 1.080852 A
2986 A -12.641910 -13.339320 1.442939 A
2987 A -13.171440 -12.641390 1.857168 A
2988 A -13.110620 -11.705110 1.903543 A
2989 A -12.619540 -10.906060 1.800531 A
2990 B -13.016690 -10.036960 1.809920 B
2991 B 13.415280 -9.454095 2.205377 B
2992 B 13.047730 -8.904598 2.882898 B
2993 B 13.392020 -8.506783 3.686655 B
2994 B -13.461940 -7.927838 2.984948 B
2995 B 13.494980 -8.342573 2.122757 B
2996 B -13.079470 -8.179477 1.334374 B
2997 A -13.159090 -7.566960 0.605872 A
2998 A 13.152490 -7.513633 1.165626 A
2999 A 13.067300 -7.349098 2.133892 A
3000 A 12.705050 -7.419853 2.998427 A
3001 A 12.011410 -7.209702 3.695796 A
3002 A 12.325300 -7.697078 4.467446 A
3003 A 10.173980 -9.534944 -3.501028 A
3004 A 9.743918 -10.216470 -2.935917 A
3005 A 9.496631 -10.311890 -2.013892 A
3006 A 9.627186 -9.667994 -1.341723 A
3007 A 8.638575 -9.469807 -1.369242 A
3008 A 8.068820 -10.233970 -1.302371 A
3009 B 8.805355 -10.728670 -0.910636 B
3010 B 9.580992 -11.260290 -0.647412 B
3011 B 9.922316 -12.023590 -1.120443 B
3012 B 10.669100 -11.891240 -1.768855 B
3013 B 11.478180 -11.947100 -2.317622 B
3014 B 12.079250 -11.774850 -3.070662 B
3015 B 12.797930 -11.632220 -3.694001 B
3016 A 13.041270 -10.741020 -3.894927 A
3017 A 13.037760 -9.772097 -3.777730 A
3018 A -13.527960 -10.003750 -2.999201 A
3019 A 13.441170 -11.001540 -2.888232 A
3020 A 12.736890 -11.066870 -2.241667 A
3021 A 11.987550 -10.777310 -1.722441 A
3022 A 3.260565 5.418916 -7.126295 A
3023 A 2.558947 5.532709 -6.421837 A
3024 A 1.805309 5.743506 -5.831353 A
3025 A 0.859626 5.890222 -5.863229 A
3026 A 0.223320 5.724145 -6.564113 A
3027 A 0.569075 4.876136 -6.921190 A
3028 B 1.424581 4.583036 -6.601394 B
3029 B 2.271336 4.283960 -6.973427 B
3030 B 2.755796 3.446639 -6.941355 B
3031 B 2.671910 2.609040 -7.463174 B
3032 B 2.757933 1.912537 -8.114390 B
3033 B 2.550924 2.512049 -8.807948 B
3034 B 2.969347 1.841676 -9.382537 B
3035 A 3.033214 1.127223 -10.006170 A
3036 A 3.960118 0.905733 -10.117290 A
3037 A 4.703528 0.434459 -10.508090 A
3038 A 5.645764 0.279399 -10.333210 A
3039 A 6.492617 0.698332 -10.024350 A
3040 A 7.320690 0.726274 -9.462045 A
3041 A 9.870890 -8.118331 7.683263 A
3042 A 10.465710 -8.704708 8.201686 A
3043 A 11.275440 -8.423988 7.745998 A
3044 A 10.921110 -7.569100 7.765741 A
3045 A 10.255100 -7.029626 7.369178 A
3046 A 9.998441 -6.598601 8.138968 A
3047 B 10.628520 -6.022872 8.661289 B
3048 B 10.735750 -5.845942 9.623315 B
3049 B 10.468770 -6.042897 10.490350 B
3050 B 10.787620 -6.184535 11.374630 B
3051 B 10.912460 -7.073583 11.043930 B
3052 B 11.277720 -8.011140 11.027780 B
3053 B 11.167030 -8.534090 10.254410 B
3054 A 11.356010 -7.954178 9.528731 A
3055 A 10.440030 -7.741266 10.039340 A
3056 A 10.508560 -7.223443 9.212077 A
3057 A 9.878270 -6.466587 9.584801 A
3058 A 9.000889 -6.900968 9.721150 A
3059 A 9.418764 -7.210072 10.484670 A
3060 A 7.259738 9.239170 8.583108 A
3061 A 6.979403 9.593537 7.710850 A
3062 A 6.526941 9.146099 6.959090 A
3063 A 6.631474 8.197084 6.898767 A
3064 A 6.606373 7.556646 7.631474 A
3065 A 6.747448 8.296555 8.177713 A
3066 B 7.169816 8.269237 9.023802 B
3067 B 7.072589 8.980470 9.652775 B
3068 B 6.124828 9.035604 9.740622 B
3069 B 5.246366 8.882470 10.112180 B
3070 B 4.784338 9.161122 10.920020 B
3071 B 5.073509 8.834538 11.786130 B
3072 B 5.464457 9.153696 12.606180 B
3073 A 6.035466 9.137551 13.362870 A
3074 A 6.413325 8.737298 -12.943250 A
3075 A 6.703304 8.121001 -12.252730 A
3076 A 7.060896 7.749471 -11.437450 A
3077 A 7.232795 7.244973 -10.618070 A
3078 A 7.751594 6.543354 -10.235410 A
3079 A 0.835086 -6.674103 -1.371237 A
3080 A 1.566283 -7.274723 -1.116660 A
3081 A 2.223604 -7.694186 -1.644543 A
3082 A 2.836119 -8.188145 -2.183698 A
3083 A 2.674323 -8.783998 -2.919994 A
3084 A 2.832889 -9.417315 -3.673766 A
3085 B 3.564615 -8.817910 -3.909557 B
3086 B 3.922280 -8.266451 -3.173363 B
3087 B 3.937470 -7.553946 -2.545317 B
3088 B 4.204720 -7.015855 -3.313352 B
3089 B 3.340731 -6.635787 -3.167442 B
3090 B 3.111063 -7.405849 -3.664919 B
3091 B 2.715927 -7.952472 -4.333051 B
3092 A 2.997554 -8.541411 -5.017811 A
3093 A 3.211217 -7.943383 -5.753268 A
3094 A 3.503522 -7.389235 -6.516983 A
3095 A 2.967396 -7.481809 -7.313697 A
3096 A 2.692110 -8.291991 -6.843614 A
3097 A 2.857989 -8.869462 -6.101521 A
3098 A -12.931830 3.111392 -1.019596 A
3099 A -12.787590 3.862483 -1.636383 A
3100 A -13.279970 3.505201 -2.342042 A
3101 A 13.274860 2.823188 -2.647813 A
3102 A -13.172050 2.106723 -2.546512 A
3103 A -12.500720 1.417247 -2.687653 A
3104 B -12.850500 0.634134 -3.165821 B
3105 B -12.902860 -0.141068 -3.774193 B
3106 B -12.202760 -0.693027 -4.294575 B
3107 B -12.716450 -0.115269 -5.130005 B
3108 B -13.446400 0.141439 -5.730207 B
3109 B 13.248230 1.002305 -5.585564 B
3110 B 13.425510 2.007495 -5.819463 B
3111 A -13.201730 2.699304 -5.174531 A
3112 A -12.934960 3.060238 -4.349673 A
3113 A -12.591190 3.220976 -3.509897 A
3114 A -11.688620 3.040370 -3.287693 A
3115 A -11.712470 2.151027 -2.871914 A
3116 A -11.518580 1.231249 -3.157085 A
3117 A 11.453450 4.563065 -10.143120 A
3118 A 11.902400 3.731539 -10.005840 A
3119 A 12.356450 3.000179 -9.531504 A
3120 A 13.007380 2.839236 -8.846152 A
3121 A -13.337570 2.251601 -9.082823 A
3122 A 13.227790 1.547201 -9.471748 A
3123 B 12.826080 2.044007 -10.235630 B
3124 B 12.781990 2.676150 -10.910850 B
3125 B 12.288040 2.597400 -11.714920 B
3126 B 11.930300 1.668857 -11.578740 B
3127 B 11.578520 0.772830 -11.831440 B
3128 B 11.224230 0.153231 -12.514880 B
3129 B 10.638300 -0.063694 -13.216560 B
3130 A 10.414470 0.840565 -13.546090 A
3131 A 10.322970 1.372841 -12.729860 A
3132 A 10.038900 1.506051 -11.801730 A
3133 A 9.448033 1.637300 -11.052990 A
3134 A 9.520655 2.410511 -10.571600 A
3135 A 9.000868 3.195859 -10.675750 A
3136 A -5.642533 11.565690 -8.330290 A
3137 A -6.537594 11.767090 -8.008105 A
3138 A -7.110670 11.138990 -7.505502 A
3139 A -7.155405 10.175300 -7.462181 A
3140 A -6.690053 9.327183 -7.537784 A
3141 A -5.783996 9.570406 -7.542477 A
3142 B -4.846078 9.454193 -7.441176 B
3143 B -3.908625 9.545866 -7.558209 B
3144 B -3.850561 10.299720 -8.167463 B
3145 B -3.551834 11.052900 -8.650876 B
3146 B -3.776026 11.960000 -8.372270 B
3147 B -4.028043 11.867450 -7.432974 B
3148 B -4.937284 11.978160 -7.063113 B
3149 A -5.325756 11.558700 -6.284169 A
3150 A -5.686841 11.021990 -5.595799 A
3151 A -6.457189 10.681720 -5.147454 A
3152 A -7.388642 10.884270 -5.309840 A
3153 A -8.117798 11.183720 -4.743130 A
3154 A -8.691931 10.507910 -4.334333 A
3155 A -12.939450 10.026620 -6.229248 A
3156 A -12.954470 9.492697 -5.399431 A
3157 A 13.203610 9.628802 -5.175656 A
3158 A 13.021670 9.301805 -6.071267 A
3159 A 12.859350 9.371285 -7.006505 A
3160 A -13.282220 9.269676 -7.297714 A
3161 B -12.606540 8.861626 -7.867451 B
3162 B -12.288510 8.067774 -8.352283 B
3163 B -11.501050 7.460773 -8.404105 B
3164 B -11.343930 6.860726 -7.687683 B
3165 B -11.570060 5.978661 -7.390256 B
3166 B -12.107920 5.189001 -7.422245 B
3167 B -12.990650 4.897379 -7.224152 B
3168 A 13.154960 5.046710 -7.351355 A
3169 A 12.397860 4.454787 -7.280539 A
3170 A 11.670570 3.793870 -7.310066 A
3171 A 11.498490 3.601848 -8.217409 A
3172 A 12.306240 3.949211 -8.621353 A
3173 A 12.886190 4.713620 -8.437855 A
3174 A -2.078496 2.937449 0.698830 A
3175 A -2.607710 3.383511 1.361444 A
3176 A -3.070264 4.028095 1.915922 A
3177 A -3.415235 4.696688 2.514868 A
3178 A -4.078791 5.394681 2.513522 A
3179 A -3.983943 6.325552 2.245987 A
3180 B -3.301357 6.763216 2.766090 B
3181 B -2.721484 7.488384 2.614108 B
3182 B -3.577631 7.840108 2.546882 B
3183 B -4.280060 7.233960 2.782651 B
3184 B -4.866599 6.654524 3.336560 B
3185 B -4.737817 6.016663 4.015645 B
3186 B -4.770442 5.944561 4.973343 B
3187 A -4.321969 6.621811 5.528456 A
3188 A -4.501681 7.488818 5.870680 A
3189 A -5.006895 8.307117 6.101935 A
3190 A -5.803391 8.322754 5.655037 A
3191 A -5.439045 7.650378 5.082338 A
3192 A -5.101004 7.180377 4.375110 A
3193 A -12.625810 -7.176642 -1.480393 A
3194 A -13.500370 -7.339965 -1.915216 A
3195 A -13.506320 -7.714704 -2.775461 A
3196 A -12.699480 -8.051899 -3.155414 A
3197 A -12.387920 -8.501646 -2.402775 A
3198 A -12.291770 -9.439962 -2.459840 A
3199 B -12.581640 -10.368060 -2.466395 B
3200 B -12.615520 -11.288520 -2.177157 B
3201 B -11.806470 -11.758860 -2.070223 B
3202 B -11.722420 -12.483690 -2.721896 B
3203 B -12.002860 -13.387110 -2.744180 B
3204 B -11.162120 -13.264490 -2.236651 B
3205 B -10.430350 -12.959190 -1.739128 B
3206 A -10.238250 -13.096230 -0.846040 A
3207 A -9.730318 13.163710 -0.965120 A
3208 A -9.730733 12.303410 -1.383394 A
3209 A -9.199409 11.516390 -1.371192 A
3210 A -8.662586 10.887670 -0.825382 A
3211 A -8.075401 11.025290 -0.059888 A
3212 A -1.516110 -3.289265 -12.625340 A
3213 A -2.379187 -3.605890 -12.268730 A
3214 A -3.289961 -3.716197 -11.959490 A
3215 A -3.523355 -3.841639 -12.901430 A
3216 A -2.684453 -3.771237 -13.360650 A
3217 A -2.383102 -2.941735 13.374120 A
3218 B -1.626021 -2.367438 13.415090 B
3219 B -0.858811 -1.974115 12.928760 B
3220 B 0.079509 -1.787664 12.713370 B
3221 B 0.795069 -1.232531 13.013320 B
3222 B 1.569731 -0.969706 13.483490 B
3223 B 2.366248 -1.351209 13.109830 B
3224 B 3.118650 -1.526800 12.490740 B
3225 A 3.134980 -2.408033 12.073040 A
3226 A 3.640247 -2.983065 11.509340 A
3227 A 3.311253 -3.892045 11.477480 A
3228 A 2.368032 -3.940459 11.657920 A
3229 A 1.602415 -4.340891 12.133530 A
3230 A 0.723190 -3.943697 11.933680 A
3231 A -6.707080 -9.624983 -5.494305 A
3232 A -7.408981 -9.285748 -4.941381 A
3233 A -7.604744 -9.216447 -3.947582 A
3234 A -7.696171 -8.983949 -3.034254 A
3235 A -7.080380 -9.443020 -2.377550 A
3236 A -6.890695 -8.951451 -1.558382 A
3237 B -6.181222 -8.784392 -2.082905 B
3238 B -5.670474 -8.989561 -2.936193 B
3239 B -4.818980 -9.062699 -2.438759 B
3240 B -4.213124 -8.693945 -1.714357 B
3241 B -3.243576 -8.419583 -1.874233 B
3242 B -2.915071 -7.546535 -1.830816 B
3243 B -3.126615 -6.623491 -2.050210 B
3244 A -3.494451 -5.755609 -1.900291 A
3245 A -4.130565 -5.012913 -1.805389 A
3246 A -3.966507 -4.193557 -1.418209 A
3247 A -4.722939 -3.713788 -1.154883 A
3248 A -5.460801 -4.047276 -0.744397 A
3249 A -6.257340 -4.585101 -0.665288 A
3250 A -11.330510 -6.606474 0.038282 A
3251 A -11.533300 -5.665037 0.291401 A
3252 A -10.634320 -5.349749 0.396991 A
3253 A -10.220610 -5.581201 1.216497 A
3254 A -9.960120 -5.736337 2.147497 A
3255 A -10.505880 -6.337250 2.669597 A
3256 B -10.892970 -7.175285 2.935406 B
3257 B -11.281140 -7.995060 2.695172 B
3258 B -10.814300 -8.632993 2.149556 B
3259 B -10.186990 -9.339764 2.023369 B
3260 B -9.638856 -10.069970 2.313107 B
3261 B -8.998897 -10.352850 2.991111 B
3262 B -8.589123 -10.692900 3.802398 B
3263 A -7.775887 -10.449520 3.348899 A
3264 A -7.729156 -9.927979 2.496922 A
3265 A -8.332483 -10.591070 2.179117 A
3266 A -8.654814 -9.709768 1.916049 A
3267 A -9.113413 -9.163471 2.596762 A
3268 A -9.694638 -9.170088 3.365922 A
3269 A 9.014844 12.966720 8.133539 A
3270 A 9.917753 12.577060 7.863165 A
3271 A 10.586520 12.255900 7.305491 A
3272 A 11.192100 12.236870 6.658229 A
3273 A 10.883100 12.618350 5.819978 A
3274 A 10.529490 12.845710 4.919297 A
3275 B 9.652072 12.981990 5.142584 B
3276 B 9.010200 -13.441510 5.255903 B
3277 B 8.265548 -13.468360 5.825732 B
3278 B 7.443818 -13.019780 6.068456 B
3279 B 6.600102 -12.635510 6.481037 B
3280 B 6.041531 -12.144580 5.787491 B
3281 B 6.758417 -11.507380 5.696821 B
3282 A 7.263048 -11.348210 6.499111 A
3283 A 7.832228 -11.297240 7.354526 A
3284 A 7.567234 -11.419780 8.231972 A
3285 A 7.172182 -11.840420 8.997977 A
3286 A 7.314975 -12.780760 8.787425 A
3287 A 7.665636 13.506620 8.357686 A
3288 A -5.092862 7.643133 -6.652921 A
3289 A -5.248584 6.688143 -6.415534 A
3290 A -5.667723 6.014208 -6.941671 A
3291 A -6.607833 5.859257 -7.206811 A
3292 A -6.760986 4.925976 -7.119178 A
3293 A -7.375615 4.578480 -6.446497 A
3294 B -8.310369 4.806135 -6.660241 B
3295 B -7.857626 5.570493 -7.048639 B
3296 B -7.639322 6.470378 -7.399511 B
3297 B -7.456954 6.931852 -8.228978 B
3298 B -7.924212 6.888748 -9.097800 B
3299 B -8.276310 7.121480 -9.964558 B
3300 B -8.781724 6.798302 -10.712190 B
3301 A -9.253986 6.215386 -10.083670 A
3302 A -8.372034 5.912383 -10.072410 A
3303 A -7.465714 6.159330 -10.153470 A
3304 A -6.905053 6.898829 -10.419390 A
3305 A -7.197153 7.594289 -11.039350 A
3306 A -7.560223 8.015911 -10.244810 A
3307 A -8.710496 -9.151949 7.541285 A
3308 A -9.242923 -9.273300 6.749453 A
3309 A -9.951114 -9.940084 6.704351 A
3310 A -10.359420 -10.602230 6.146283 A
3311 A -9.534346 -10.668650 5.646987 A
3312 A -8.636383 -10.949290 5.618798 A
3313 B -7.895989 -11.547380 5.624210 B
3314 B -8.565222 -12.187240 5.937700 B
3315 B -9.394364 -12.543430 6.239326 B
3316 B -10.075380 -11.940960 5.985538 B
3317 B -10.435940 -12.581470 5.335310 B
3318 B -10.081410 -13.466560 4.926816 B
3319 B -10.227710 12.700770 4.780143 B
3320 A -10.857730 12.021250 4.463106 A
3321 A -11.554200 11.361310 4.423265 A
3322 A -11.690110 10.512650 3.965747 A
3323 A -11.901710 9.593809 3.844808 A
3324 A -12.738160 9.191514 3.731344 A
3325 A -12.445440 8.504291 4.327748 A
3326 A 9.520913 7.999323 12.296990 A
3327 A 9.761422 8.754980 12.856750 A
3328 A 10.029660 9.278442 -13.471820 A
3329 A 10.887170 9.054181 13.245910 A
3330 A 11.554690 8.859391 12.588150 A
3331 A 11.910720 8.409170 11.810870 A
3332 B 11.730700 8.643998 10.905750 B
3333 B 10.826280 8.842184 11.078570 B
3334 B 10.134490 8.965110 11.728170 B
3335 B 9.641544 9.725968 12.054950 B
3336 B 9.815371 10.584410 12.464640 B
3337 B 10.266210 11.432050 12.432410 B
3338 B 10.709260 12.277150 12.598520 B
3339 A 11.389180 11.979830 13.217000 A
3340 A 11.717820 12.577860 -13.215520 A
3341 A 11.906570 13.287410 -12.561780 A
3342 A 11.910360 -13.283710 -11.767880 A
3343 A 11.626790 -12.573070 -11.172920 A
3344 A 11.259470 -11.848970 -10.632720 A
3345 A -2.853292 -8.302150 -12.680620 A
3346 A -3.260067 -7.734578 -12.044580 A
3347 A -2.616121 -7.144710 -11.550640 A
3348 A -2.171119 -6.401095 -11.086110 A
3349 A -1.989359 -6.065256 -10.206930 A
3350 A -2.106624 -6.995131 -10.114040 A
3351 B -1.168032 -6.889245 -9.952895 B
3352 B -0.347681 -6.466639 -9.699699 B
3353 B 0.626546 -6.572332 -9.763347 B
3354 B 1.416474 -6.128931 -9.521049 B
3355 B 2.238029 -5.648561 -9.654394 B
3356 B 3.070317 -5.172380 -9.822574 B
3357 B 3.287799 -6.099546 -9.872113 B
3358 A 3.594270 -6.966468 -9.864666 A
3359 A 3.729484 -7.675179 -10.554470 A
3360 A 4.466898 -7.160194 -11.015030 A
3361 A 4.919950 -6.793167 -10.236160 A
3362 A 4.812937 -6.298815 -9.402196 A
3363 A 5.228319 -7.009129 -8.866442 A
3364 A -4.177951 12.021150 7.852938 A
3365 A -3.780950 12.825530 7.524421 A
3366 A -2.833553 13.088180 7.364084 A
3367 A -3.316879 13.292390 6.554027 A
3368 A -4.123253 -13.315940 6.459451 A
3369 A -3.713487 -12.587180 7.023900 A
3370 B -3.272506 -12.135050 6.226656 B
3371 B -4.182264 -12.051680 6.234267 B
3372 B -3.694967 -11.227090 5.868078 B
3373 B -2.984212 -10.599670 5.849896 B
3374 B -2.248961 -9.908735 5.562347 B
3375 B -1.850134 -9.948297 4.679156 B
3376 B -1.388708 -10.356070 4.034790 B
3377 A -1.344280 -9.985839 3.176485 A
3378 A -0.825694 -9.285953 2.758860 A
3379 A -0.011213 -8.834938 2.442418 A
3380 A 0.693722 -8.352165 1.991029 A
3381 A 0.732023 -7.418447 1.829934 A
3382 A 0.678374 -6.781084 2.543442 A
3383 A -1.866385 -10.482870 -5.480533 A
3384 A -2.039431 -9.593791 -5.788610 A
3385 A -1.722373 -9.008739 -5.098514 A
3386 A -1.602936 -8.106008 -4.876362 A
3387 A -0.828781 -7.939828 -4.352466 A
3388 A 0.029335 -7.816251 -4.005116 A
3389 B 0.777624 -7.192042 -4.118663 B
3390 B 1.009626 -7.456250 -3.266782 B
3391 B 1.596817 -7.789334 -2.599981 B
3392 B 1.403812 -8.684790 -2.919336 B
3393 B 1.728634 -9.596623 -2.951065 B
3394 B 0.780071 -9.688685 -2.856822 B
3395 B 0.754883 -10.393400 -3.476205 B
3396 A 0.503112 -11.283190 -3.274690 A
3397 A 0.133493 -12.163730 -3.243153 A
3398 A -0.707826 -11.830260 -2.909783 A
3399 A -1.155913 -11.022540 -3.108378 A
3400 A -1.671714 -11.428290 -3.787833 A
3401 A -1.943221 -12.034550 -4.487354 A
3402 A 11.091850 5.246020 9.415389 A
3403 A 10.277690 4.979641 9.015533 A
3404 A 9.844105 4.452837 8.356284 A
3405 A 9.832720 3.838942 7.616503 A
3406 A 10.100850 2.993776 7.206101 A
3407 A 10.840090 2.522473 7.574608 A
3408 B 11.501040 2.059525 8.054054 B
3409 B 11.916800 2.661296 8.686540 B
3410 B 11.898020 3.055316 9.554371 B
3411 B 11.499150 3.163353 10.436050 B
3412 B 10.965450 2.622489 9.889142 B
3413 B 11.256690 2.025238 9.251079 B
3414 B 11.863310 1.278963 9.296023 B
3415 A 12.286370 0.465837 9.509754 A
3416 A 11.808810 -0.360270 9.682531 A
3417 A 11.150510 0.067857 10.240050 A
3418 A 10.509500 0.493016 10.832800 A
3419 A 10.789500 0.297993 11.717390 A
3420 A 11.067770 0.480015 12.617020 A
3421 A 5.413630 -1.965208 -13.525520 A
3422 A 4.670757 -2.196468 12.992890 A
3423 A 4.021229 -2.819976 12.716970 A
3424 A 3.289738 -3.260021 13.135860 A
3425 A 2.424417 -3.483036 13.547530 A
3426 A 1.715044 -3.574079 -12.934160 A
3427 B 1.219721 -3.889593 -12.166300 B
3428 B 0.416190 -4.404440 -12.197200 B
3429 B 1.133660 -5.042356 -12.043790 B
3430 B 1.342511 -5.964655 -12.157370 B
3431 B 1.070528 -6.740715 -12.692650 B
3432 B 0.144814 -6.817285 -12.936080 B
3433 B -0.555953 -7.459479 -12.941110 B
3434 A -1.147786 -8.203860 -12.763210 A
3435 A -1.755351 -7.747684 -13.375120 A
3436 A -1.166412 -7.395206 13.028750 A
3437 A -0.649636 -7.030696 12.263510 A
3438 A -1.045122 -7.686196 11.637410 A
3439 A -1.345181 -7.732883 10.739140 A
3440 A 4.858134 -11.652750 -5.264421 A
3441 A 5.105783 -10.736890 -5.179604 A
3442 A 5.544922 -10.099020 -5.775160 A
3443 A 5.118957 -9.231050 -5.904373 A
3444 A 4.627398 -9.377454 -5.092700 A
3445 A 4.163400 -10.133930 -4.747332 A
3446 B 4.039634 -11.061100 -4.541075 B
3447 B 3.833066 -12.014800 -4.395933 B
3448 B 3.565469 -12.870270 -4.142702 B
3449 B 3.702538 -13.008750 -3.190561 B
3450 B 3.258844 -12.140680 -3.354450 B
3451 B 2.621672 -11.503330 -3.519137 B
3452 B 2.044854 -10.746790 -3.404834 B
3453 A 1.338334 -10.599770 -2.687990 A
3454 A 0.848030 -11.258820 -2.191749 A
3455 A 0.261363 -12.021090 -2.099023 A
3456 A -0.140856 -12.847450 -2.357366 A
3457 A -0.010548 -13.307990 -3.210825 A
3458 A -0.529157 13.228080 -3.769266 A
3459 A 7.230664 0.938120 -7.727314 A
3460 A 7.701284 0.235843 -8.198761 A
3461 A 8.458903 -0.025213 -8.735308 A
3462 A 8.119960 -0.397827 -9.530114 A
3463 A 8.212691 0.409255 -10.099420 A
3464 A 8.085920 1.083186 -10.770450 A
3465 B 8.070286 1.784030 -11.467020 B
3466 B 8.224169 1.858647 -12.415900 B
3467 B 9.071486 2.233298 -12.805250 B
3468 B 9.838094 2.793139 -12.653180 B
3469 B 10.310160 3.587331 -12.488660 B
3470 B 10.732820 4.332718 -12.031950 B
3471 B 11.365840 4.650794 -11.397080 B
3472 A 12.094050 5.016405 -11.894990 A
3473 A 12.302450 5.765327 -12.444840 A
3474 A 12.832470 5.405815 -13.193400 A
3475 A 13.335660 4.924080 13.276780 A
3476 A -13.536710 4.280397 12.629010 A
3477 A 13.261860 3.380394 12.847630 A
3478 A 5.527795 4.723265 -7.758124 A
3479 A 5.236662 5.219953 -6.953283 A
3480 A 4.936481 5.003105 -6.064382 A
3481 A 4.267712 5.312984 -5.467405 A
3482 A 3.382910 5.624994 -5.590421 A
3483 A 3.283632 4.692415 -5.323373 A
3484 B 3.786616 4.584671 -4.529325 B
3485 B 4.282374 4.716310 -3.726160 B
3486 B 4.630539 4.572564 -2.845702 B
3487 B 4.995894 4.614003 -1.960189 B
3488 B 5.751717 4.459466 -2.498887 B
3489 B 5.620717 4.744383 -3.414917 B
3490 B 5.364674 5.477960 -3.993326 B
3491 A 5.011063 6.351476 -3.793393 A
3492 A 4.099433 6.628348 -3.605073 A
3493 A 4.352351 7.379852 -3.052829 A
3494 A 4.695560 8.103476 -2.539778 A
3495 A 4.685166 8.678881 -1.788621 A
3496 A 4.354914 8.660087 -0.891760 A
3497 A -12.504300 6.384347 11.662210 A
3498 A -13.000900 6.544513 10.871720 A
3499 A -13.122580 7.290342 11.473210 A
3500 A -13.225750 7.799533 12.269190 A
3501 A -13.474800 7.469709 13.133660 A
3502 A 13.029290 7.014865 12.516310 A
3503 B 13.025320 6.624469 11.639820 B
3504 B -13.542890 5.828975 11.661850 B
3505 B -12.913470 5.312623 12.169610 B
3506 B -12.278300 5.041235 12.851430 B
3507 B -11.759820 4.659366 -13.545770 B
3508 B -11.593600 3.931931 -12.946920 B
3509 B -11.814990 3.232671 -12.347500 B
3510 A -12.571400 2.661441 -12.284020 A
3511 A -13.438290 2.513043 -12.651340 A
3512 A 12.824170 2.918062 -12.838510 A
3513 A 12.508760 3.756908 -13.136230 A
3514 A 12.132500 4.123548 13.170060 A
3515 A 12.018970 4.416272 12.257920 A
3516 A -3.720591 3.481961 -4.320714 A
3517 A -2.805696 3.668091 -4.729589 A
3518 A -2.035634 3.454779 -4.069009 A
3519 A -2.798998 2.911500 -3.858767 A
3520 A -2.567976 2.024696 -3.465859 A
3521 A -2.677586 2.358022 -2.578479 A
3522 B -3.506460 2.057200 -2.209994 B
3523 B -4.269489 2.584750 -2.537048 B
3524 B -4.196756 2.115581 -3.370254 B
3525 B -4.459903 1.285738 -3.791304 B
3526 B -4.846995 0.731231 -4.482646 B
3527 B -5.281858 0.841324 -5.294478 B
3528 B -5.633038 0.716704 -6.169190 B
3529 A -5.271008 0.160994 -6.816211 A
3530 A -4.614098 -0.461860 -6.800541 A
3531 A -5.239481 -0.858079 -6.184825 A
3532 A -5.108033 -1.864063 -6.069737 A
3533 A -5.689476 -2.381329 -6.615621 A
3534 A -5.974323 -2.874557 -7.379060 A
3535 A 11.714270 -2.077027 -8.093376 A
3536 A 10.929020 -2.641039 -7.955240 A
3537 A 10.072110 -2.791535 -7.374499 A
3538 A 9.302236 -2.733868 -7.904363 A
3539 A 9.428595 -2.343429 -8.828216 A
3540 A 9.892668 -1.686810 -9.361329 A
3541 B 10.167890 -1.438017 -8.456042 B
3542 B 9.410192 -1.318247 -7.921124 B
3543 B 8.898288 -1.742603 -7.240605 B
3544 B 8.493037 -1.576816 -6.362152 B
3545 B 7.569944 -1.683166 -6.080657 B
3546 B 6.837314 -2.263407 -5.912004 B
3547 B 7.156549 -2.855596 -5.209946 B
3548 A 7.648544 -2.083916 -4.916573 A
3549 A 8.095438 -1.341668 -4.426577 A
3550 A 8.491553 -0.448487 -4.177183 A
3551 A 8.604631 0.385579 -4.591905 A
3552 A 8.199034 0.375752 -5.458780 A
3553 A 8.788652 -0.354462 -5.482543 A
3554 A -8.397573 -7.337493 4.853544 A
3555 A -7.706586 -6.701435 4.770771 A
3556 A -7.539322 -7.347899 4.086970 A
3557 A -7.422119 -8.251272 3.920104 A
3558 A -6.970661 -8.939342 3.425596 A
3559 A -6.300459 -9.642690 3.157446 A
3560 B -5.493943 -9.940682 2.747559 B
3561 B -4.696021 -9.909137 2.140494 B
3562 B -4.408019 -9.954973 1.241827 B
3563 B -3.749027 -9.285576 1.079927 B
3564 B -3.763910 -8.329725 1.188529 B
3565 B -3.143554 -8.049841 1.843671 B
3566 B -2.994343 -7.668732 2.720919 B
3567 A -2.793489 -7.088881 3.439961 A
3568 A -3.263708 -6.333409 3.795117 A
3569 A -3.537989 -5.406403 4.070374 A
3570 A -4.255647 -5.777436 4.585099 A
3571 A -3.439545 -5.912703 5.175879 A
3572 A -3.849722 -6.040342 6.060514 A
3573 A 11.978450 1.289571 12.486460 A
3574 A 11.582390 1.108470 11.634590 A
3575 A 11.695590 1.522868 10.779960 A
3576 A 12.370610 2.030495 10.302920 A
3577 A 12.733780 2.271494 11.175080 A
3578 A 11.935710 2.292094 11.718700 A
3579 B 11.029950 2.421223 11.993350 B
3580 B 10.185970 2.870984 11.833900 B
3581 B 9.573625 3.495977 11.440410 B
3582 B 8.684646 3.786549 11.204240 B
3583 B 8.049714 4.155375 10.561310 B
3584 B 7.910095 4.792424 9.859221 B
3585 B 8.557102 5.344512 9.423566 B
3586 A 9.126935 5.356935 8.644075 A
3587 A 9.501918 5.323539 7.766476 A
3588 A 10.238340 5.197495 7.154795 A
3589 A 10.930590 4.527323 7.115499 A
3590 A 11.034530 3.918815 7.837366 A
3591 A 11.181230 3.955739 8.779645 A
3592 A -3.951402 2.412498 -10.741250 A
3593 A -4.272373 1.621013 -11.155500 A
3594 A -4.015654 0.867122 -11.720690 A
3595 A -4.018310 0.511246 -12.613740 A
3596 A -4.964254 0.266121 -12.730680 A
3597 A -5.200028 -0.486287 -12.107480 A
3598 B -4.795852 -1.155975 -11.529780 B
3599 B -3.941380 -0.719245 -11.637850 B
3600 B -3.142128 -0.698016 -11.156970 B
3601 B -2.585711 -0.090437 -11.634060 B
3602 B -1.744847 0.347988 -11.528410 B
3603 B -1.762423 0.436387 -12.503310 B
3604 B -2.515042 1.020525 -12.377700 B
3605 A -1.769764 1.602955 -12.177700 A
3606 A -0.919232 1.253486 -11.867580 A
3607 A -1.298146 1.502299 -11.006310 A
3608 A -1.663600 2.249686 -10.559400 A
3609 A -1.955386 2.889071 -9.899713 A
3610 A -2.289516 3.025120 -8.959579 A
3611 A -4.449697 -3.451114 1.434741 A
3612 A -3.603525 -3.360166 1.933986 A
3613 A -2.744786 -3.873102 1.886067 A
3614 A -2.562997 -4.583742 2.466881 A
3615 A -3.189234 -5.199818 2.737589 A
3616 A -3.210937 -6.155392 2.743888 A
3617 B -3.577065 -6.921918 2.167224 B
3618 B -4.351995 -7.486291 2.034037 B
3619 B -5.187277 -7.114767 1.651189 B
3620 B -5.559359 -6.309483 1.437855 B
3621 B -5.905742 -5.397562 1.556659 B
3622 B -6.808288 -5.067904 1.778111 B
3623 B -7.340795 -5.386390 1.045223 B
3624 A -7.487367 -5.534332 0.076523 A
3625 A -7.860980 -5.931832 -0.719027 A
3626 A -7.701648 -6.843526 -0.927504 A
3627 A -7.224823 -6.754451 -1.751996 A
3628 A -6.772122 -6.404845 -2.534549 A
3629 A -5.861160 -6.258090 -2.821707 A
3630 A 2.682702 6.692531 10.764470 A
3631 A 3.398972 6.205903 10.426820 A
3632 A 4.000153 6.216577 9.667127 A
3633 A 3.636428 5.447571 9.158740 A
3634 A 3.280334 4.611326 9.330481 A
3635 A 2.779472 5.218197 9.827540 A
3636 B 2.644047 5.995914 9.251966 B
3637 B 2.760759 6.005694 8.303430 B
3638 B 2.222436 5.854891 7.516065 B
3639 B 1.801878 5.289453 8.087777 B
3640 B 1.459648 4.478453 8.383183 B
3641 B 0.622347 4.045685 8.176438 B
3642 B -0.283161 3.763212 8.028943 B
3643 A -0.375675 4.613605 8.414008 A
3644 A -0.829897 4.659061 9.195139 A
3645 A -1.345966 3.816531 9.296973 A
3646 A -1.203114 3.076566 8.692556 A
3647 A -1.604554 2.348969 8.127298 A
3648 A -0.993799 1.779730 7.705696 A
3649 A 0.864793 -1.416155 9.659077 A
3650 A 1.058612 -1.969731 10.332310 A
3651 A 1.559150 -2.602053 10.981500 A
3652 A 1.405919 -3.390112 10.593310 A
3653 A 1.133549 -4.379932 10.633950 A
3654 A 1.985844 -4.771119 10.638100 A
3655 B 2.884637 -4.371241 10.395270 B
3656 B 3.745486 -4.422291 10.074430 B
3657 B 3.899487 -5.344064 9.972924 B
3658 B 3.073242 -5.731989 10.295310 B
3659 B 2.231049 -6.072502 10.602930 B
3660 B 1.301215 -6.137418 10.953990 B
3661 B 0.876125 -6.691277 11.595270 B
3662 A 1.138710 -7.555407 11.885160 A
3663 A 1.825046 -8.027678 12.330120 A
3664 A 2.224955 -8.286982 13.180740 A
3665 A 2.706855 -8.631360 -13.122070 A
3666 A 3.325898 -9.299499 -12.884590 A
3667 A 3.715607 -10.158480 -13.073420 A
3668 A -5.302728 -3.705109 -12.110380 A
3669 A -5.894088 -3.024020 -11.729320 A
3670 A -6.008413 -2.268122 -11.161550 A
3671 A -6.346482 -1.710739 -10.401670 A
3672 A -7.009604 -1.655455 -9.675394 A
3673 A -7.800199 -2.146965 -9.584510 A
3674 B -7.955870 -2.994056 -10.027920 B
3675 B -7.887878 -3.862099 -9.600971 B
3676 B -7.882901 -4.768673 -9.276988 B
3677 B -8.751479 -4.735095 -8.796267 B
3678 B -9.042945 -5.024293 -7.937607 B
3679 B -8.869581 -5.124698 -7.014587 B
3680 B -8.774341 -5.330847 -6.123832 B
3681 A -8.387895 -6.213172 -5.987960 A
3682 A -7.769126 -6.841108 -5.591291 A
3683 A -7.054845 -6.669674 -4.971644 A
3684 A -7.307056 -6.225773 -4.160385 A
3685 A -7.657936 -5.493334 -3.601554 A
3686 A -7.812479 -4.555607 -3.421181 A
3687 A 2.936968 -10.583190 3.616903 A
3688 A 3.220688 -9.751250 3.167561 A
3689 A 3.118056 -9.155278 2.425396 A
3690 A 2.203509 -9.528860 2.439823 A
3691 A 1.780201 -8.647620 2.424564 A
3692 A 1.892233 -8.210512 3.243663 A
3693 B 1.872886 -9.067739 3.634703 B
3694 B 1.665047 -9.904114 4.025455 B
3695 B 0.760262 -9.739067 3.658154 B
3696 B 0.002462 -10.252190 3.401762 B
3697 B -0.645901 -11.002380 3.216340 B
3698 B -1.357966 -11.519710 2.819251 B
3699 B -1.237597 -11.483210 1.860053 B
3700 A -0.422684 -11.558950 1.292456 A
3701 A 0.275952 -12.221990 1.462160 A
3702 A 0.206954 -12.749240 2.284606 A
3703 A -0.633026 -12.442380 1.989997 A
3704 A -1.572857 -12.559560 1.762460 A
3705 A -1.055739 -12.723260 0.932456 A
3706 A 6.149275 -13.197530 -6.758090 A
3707 A 6.786501 -12.674080 -6.248579 A
3708 A 7.723905 -12.469270 -6.302679 A
3709 A 8.605221 -12.099430 -6.193581 A
3710 A 9.504234 -12.109200 -5.846970 A
3711 A 10.319670 -11.863970 -6.281158 A
3712 B 10.545910 -10.915800 -6.320716 B
3713 B 9.748703 -10.466350 -6.525852 B
3714 B 8.978921 -11.035090 -6.747783 B
3715 B 8.465112 -11.673030 -7.257352 B
3716 B 8.810431 -12.212390 -8.027263 B
3717 B 9.269645 -12.735680 -8.689976 B
3718 B 9.670036 13.505900 -8.553379 B
3719 A 9.519255 12.641060 -8.131925 A
3720 A 8.930160 12.490140 -7.373343 A
3721 A 8.420098 12.710100 -6.545919 A
3722 A 8.047231 12.946480 -5.671592 A
3723 A 7.865474 -13.223280 -5.578112 A
3724 A 8.464433 -12.648320 -5.109679 A
3725 A -7.810333 -4.746480 -6.922353 A
3726 A -7.829332 -4.959240 -7.916571 A
3727 A -6.899490 -4.627770 -7.722664 A
3728 A -6.817351 -3.994979 -6.867474 A
3729 A -5.999536 -4.700130 -7.110102 A
3730 A -5.598271 -3.874491 -7.232537 A
3731 B -5.588141 -3.728256 -6.266192 B
3732 B -6.063784 -3.771660 -5.443285 B
3733 B -6.851861 -3.764033 -4.963333 B
3734 B -7.415257 -4.586226 -4.844037 B
3735 B -7.665370 -5.508896 -4.979366 B
3736 B -7.184267 -5.490682 -5.880856 B
3737 B -6.239449 -5.650885 -6.108873 B
3738 A -5.458911 -5.019138 -6.332072 A
3739 A -4.787498 -4.501466 -5.999727 A
3740 A -3.922704 -4.070227 -5.909455 A
3741 A -4.086592 -4.550583 -6.702205 A
3742 A -4.132069 -5.300956 -7.279049 A
3743 A -3.775153 -6.159990 -7.265647 A
3744 A 9.750772 6.196150 -9.005176 A
3745 A 8.846819 6.374105 -8.967402 A
3746 A 8.768306 5.720574 -8.254414 A
3747 A 9.181934 5.520087 -7.411531 A
3748 A 9.214474 6.321807 -6.877018 A
3749 A 9.309905 7.153878 -7.324284 A
3750 B 9.339313 7.516754 -8.192457 B
3751 B 9.226744 7.608951 -9.153251 B
3752 B 8.959479 7.579612 -10.071030 B
3753 B 8.692358 7.964081 -10.912710 B
3754 B 8.426209 8.524174 -11.609460 B
3755 B 7.737197 9.188038 -11.392580 B
3756 B 7.277625 9.318463 -10.544480 B
3757 A 7.501523 9.318095 -9.609642 A
3758 A 7.392113 9.042213 -8.708838 A
3759 A 8.103532 8.809777 -8.086615 A
3760 A 8.973300 9.233974 -7.847741 A
3761 A 9.600484 9.897700 -8.172991 A
3762 A 10.342940 10.120370 -8.721967 A
3763 A 7.321382 1.565126 10.342110 A
3764 A 7.837319 1.422657 9.552321 A
3765 A 8.681420 1.381891 9.178799 A
3766 A 8.883612 2.425195 9.201022 A
3767 A 8.461524 2.902724 9.918922 A
3768 A 8.525771 2.346457 10.754490 A
3769 B 8.875278 2.230666 11.661370 B
3770 B 8.168148 2.691610 12.101990 B
3771 B 7.334999 2.479529 11.679030 B
3772 B 6.556538 3.048675 11.521870 B
3773 B 6.291090 3.929476 11.370740 B
3774 B 6.384226 3.802379 10.374100 B
3775 B 6.314407 2.875998 10.174690 B
3776 A 5.696056 2.182209 10.282910 A
3777 A 5.021430 1.892486 10.884070 A
3778 A 4.767038 1.931786 11.813550 A
3779 A 4.851939 1.003178 11.513170 A
3780 A 5.299410 0.866758 10.656310 A
3781 A 4.766671 1.289497 9.998884 A
3782 A -12.725210 -12.485760 -2.098426 A
3783 A -12.851800 -12.068830 -2.940153 A
3784 A -12.887680 -11.559290 -3.809243 A
3785 A -12.532280 -10.904250 -4.405819 A
3786 A -12.043130 -10.460350 -5.041176 A
3787 A -11.508040 -9.732946 -4.800972 A
3788 B -11.434070 -8.807973 -5.345357 B
3789 B -12.092570 -7.986880 -5.464834 B
3790 B -12.334900 -8.126977 -6.522183 B
3791 B -11.937330 -7.228979 -6.346196 B
3792 B -12.031720 -7.002506 -5.433758 B
3793 B -11.435510 -6.306694 -5.497351 B
3794 B -11.657800 -5.470114 -5.195576 B
3795 A -12.487640 -5.113059 -4.910512 A
3796 A -13.359810 -4.796851 -5.061974 A
3797 A -13.294320 -4.055510 -4.468058 A
3798 A -13.369470 -3.194974 -4.122575 A
3799 A 13.228750 -2.438952 -3.771874 A
3800 A -13.345030 -1.695848 -4.014190 A
3801 A -12.296550 -4.620924 -7.624567 A
3802 A -11.983390 -4.441175 -6.747313 A
3803 A -11.517900 -4.435492 -5.886613 A
3804 A -11.137570 -4.475749 -5.023207 A
3805 A -10.476420 -4.440987 -4.309742 A
3806 A -11.217740 -4.523542 -3.681350 A
3807 B -11.969030 -4.359825 -4.293068 B
3808 B -12.304480 -3.972122 -5.092462 B
3809 B -12.731310 -3.844357 -5.939199 B
3810 B -12.942260 -3.667046 -6.855578 B
3811 B -12.960900 -3.100589 -7.659924 B
3812 B -13.228960 -2.332243 -8.132528 B
3813 B -13.537220 -3.061380 -8.676049 B
3814 A 13.011450 -3.812035 -8.891111 A
3815 A 12.378630 -3.671876 -8.223710 A
3816 A 11.444740 -3.681092 -8.136539 A
3817 A 10.927240 -4.383608 -7.680040 A
3818 A 11.042130 -5.332663 -7.731332 A
3819 A 11.794820 -5.461099 -8.342536 A
3820 A 0.540764 -10.626930 12.872280 A
3821 A 1.212078 -10.954980 13.449370 A
3822 A 1.487425 -11.161710 -12.753260 A
3823 A 2.400307 -11.440830 -12.672940 A
3824 A 3.113048 -12.020610 -12.926630 A
3825 A 3.524456 -11.844620 -12.046270 A
3826 B 3.574028 -10.904570 -11.939190 B
3827 B 4.115305 -10.165840 -12.098810 B
3828 B 4.945314 -9.781268 -12.316930 B
3829 B 5.178195 -10.516450 -11.759640 B
3830 B 4.963819 -11.401310 -11.430100 B
3831 B 4.545882 -12.281370 -11.454330 B
3832 B 4.195140 -13.112050 -11.163650 B
3833 A 3.961724 13.105050 -11.630940 A
3834 A 3.367060 12.354120 -11.982760 A
3835 A 3.939935 11.887880 -12.642550 A
3836 A 3.475935 11.048530 -12.523180 A
3837 A 4.214972 10.508740 -12.283650 A
3838 A 4.988771 10.353220 -11.730940 A
3839 A 3.088433 -1.319725 5.698109 A
3840 A 3.322019 -0.401515 5.995638 A
3841 A 3.498766 -0.524446 5.090729 A
3842 A 3.561911 -1.097885 4.365228 A
3843 A 4.478445 -1.224838 4.070701 A
3844 A 5.389987 -0.955782 4.438317 A
3845 B 6.014739 -0.979075 3.694959 B
3846 B 5.528145 -1.716998 3.316377 B
3847 B 4.756325 -2.245898 3.168713 B
3848 B 4.888025 -2.024554 2.195681 B
3849 B 4.548705 -2.461345 1.421295 B
3850 B 4.847004 -2.720206 0.545263 B
3851 B 4.863554 -3.432374 -0.134299 B
3852 A 4.658021 -3.944360 0.659617 A
3853 A 4.376604 -4.376322 1.500376 A
3854 A 3.589221 -4.881257 1.111580 A
3855 A 2.748554 -5.193711 1.358977 A
3856 A 1.818410 -5.174810 1.419859 A
3857 A 1.355826 -4.758297 0.656327 A
3858 A 0.739696 -5.087499 9.780565 A
3859 A 1.590073 -5.096972 9.260774 A
3860 A 1.379919 -4.136737 9.253567 A
3861 A 0.907292 -3.306517 9.619332 A
3862 A 1.150044 -2.382849 9.434793 A
3863 A 1.937490 -1.879461 9.281239 A
3864 B 2.574278 -1.919668 8.522935 B
3865 B 1.840639 -1.250424 8.323199 B
3866 B 0.975358 -1.398067 8.622859 B
3867 B 0.133655 -1.846637 8.743018 B
3868 B -0.671341 -2.338352 9.074662 B
3869 B 0.060867 -2.274900 9.691324 B
3870 B 0.029272 -2.272716 10.652930 B
3871 A -0.152746 -2.542496 11.543190 A
3872 A 0.658237 -2.038397 11.491130 A
3873 A 1.447817 -1.595219 11.327750 A
3874 A 2.106329 -1.648256 10.619900 A
3875 A 2.255822 -0.738277 10.467530 A
3876 A 2.784601 -0.182406 9.816688 A
3877 A 11.121840 -1.345488 10.767450 A
3878 A 10.507810 -0.670818 11.089290 A
3879 A 9.574035 -0.652624 11.330790 A
3880 A 8.892658 -0.076703 11.658750 A
3881 A 8.571780 0.707603 12.095940 A
3882 A 9.008140 1.206656 12.788180 A
3883 B 9.654038 1.828571 13.120770 B
3884 B 9.307045 2.741240 13.172790 B
3885 B 8.435819 2.999839 13.491260 B
3886 B 7.739357 2.819812 -12.937980 B
3887 B 7.441544 3.220655 -12.089180 B
3888 B 6.873581 3.640483 -11.439470 B
3889 B 6.322915 4.433227 -11.377550 B
3890 A 6.114974 5.339178 -11.576280 A
3891 A 6.621315 5.990756 -12.079810 A
3892 A 7.291980 6.119831 -12.736410 A
3893 A 7.915698 5.934242 -13.421450 A
3894 A 8.278133 5.251096 13.132420 A
3895 A 9.167970 5.054756 12.795230 A
3896 A -4.141613 6.223157 10.874140 A
3897 A -3.325965 5.763596 11.254560 A
3898 A -2.573495 5.173406 11.142310 A
3899 A -1.837655 4.586469 11.061930 A
3900 A -1.066170 5.084097 10.770040 A
3901 A -0.592002 5.716683 11.271520 A
3902 B -0.688199 6.590374 11.575870 B
3903 B -1.297857 7.118122 11.052500 B
3904 B -1.925098 7.398601 10.366090 B
3905 B -2.777709 7.032616 10.083330 B
3906 B -3.197179 6.176408 10.235150 B
3907 B -3.673862 5.393179 9.814960 B
3908 B -2.736213 5.203174 9.576913 B
3909 A -1.856781 5.566732 9.616768 A
3910 A -1.865696 6.008897 10.463410 A
3911 A -2.210103 6.521563 11.183560 A
3912 A -1.837621 6.576455 12.044420 A
3913 A -1.828472 7.287946 12.683480 A
3914 A -1.422964 8.038337 13.096790 A
3915 A 5.021514 12.720290 -11.035220 A
3916 A 5.169054 12.409110 -11.953990 A
3917 A 5.077005 11.732990 -12.641940 A
3918 A 4.614061 11.273650 -13.361710 A
3919 A 4.019309 11.655780 13.083450 A
3920 A 4.297646 12.562090 13.037430 A
3921 B 4.911595 13.284370 13.123830 B
3922 B 5.359107 -13.047310 13.420480 B
3923 B 5.496353 -12.870630 -12.764540 B
3924 B 4.866896 -12.203510 -12.479760 B
3925 B 4.522619 -11.409020 -12.844410 B
3926 B 5.159450 -10.717280 -12.927080 B
3927 B 6.124276 -10.508040 -12.726870 B
3928 A 6.990563 -10.397610 -12.311590 A
3929 A 7.695940 -10.472120 -12.967450 A
3930 A 8.202324 -11.144760 -13.446690 A
3931 A 7.836411 -12.058270 -13.427230 A
3932 A 7.344257 -12.782260 13.196830 A
3933 A 6.783867 -13.299080 12.615030 A
3934 A 11.231460 -3.592932 9.225969 A
3935 A 11.832530 -3.101048 9.735337 A
3936 A 12.231800 -2.719493 10.503940 A
3937 A 12.917650 -3.384949 10.763700 A
3938 A -13.465340 -3.994247 11.058450 A
3939 A -12.932840 -4.814656 10.922080 A
3940 B -12.140180 -5.276797 10.632410 B
3941 B -12.337670 -6.159947 10.362200 B
3942 B -12.229110 -6.808263 9.655463 B
3943 B -12.976590 -6.994370 9.073084 B
3944 B 13.389680 -6.369393 9.352461 B
3945 B 13.222770 -5.440528 9.235213 B
3946 B -13.022570 -5.362619 8.805485 B
3947 A -12.236170 -5.499634 9.326349 A
3948 A -11.444580 -5.697369 9.805067 A
3949 A -10.520650 -5.626628 10.026990 A
3950 A -9.926526 -5.282814 9.339306 A
3951 A -9.843072 -6.088645 8.833555 A
3952 A -10.528130 -6.730427 8.983356 A
3953 A -8.710272 1.034342 11.413620 A
3954 A -9.377584 1.642572 11.717720 A
3955 A -9.866549 1.710467 10.912260 A
3956 A -8.965122 1.960240 10.634300 A
3957 A -8.152341 2.211280 10.191290 A
3958 A -7.426296 2.411361 9.628091 A
3959 B -6.646995 2.497307 9.076701 B
3960 B -6.967737 2.846873 8.226973 B
3961 B -7.679618 3.245721 7.683376 B
3962 B -8.320571 3.786266 8.134145 B
3963 B -8.952371 3.977628 8.840129 B
3964 B -9.180007 3.645429 9.724498 B
3965 B -9.006764 3.341302 10.637450 B
3966 A -8.530780 3.283470 11.476370 A
3967 A -9.374822 3.160040 11.914980 A
3968 A -10.032930 2.756621 11.387230 A
3969 A -10.809930 3.278065 11.279490 A
3970 A -11.125170 3.739835 12.054980 A
3971 A -11.822120 3.758960 12.696270 A
3972 A 4.906549 6.024801 0.227452 A
3973 A 5.544020 5.788624 -0.476693 A
3974 A 5.670489 5.096289 -1.195498 A
3975 A 6.219818 5.299527 -1.973310 A
3976 A 6.526437 5.021369 -2.851678 A
3977 A 6.648526 4.967135 -3.781196 A
3978 B 6.058092 4.693823 -4.500916 B
3979 B 5.510643 3.987548 -4.235341 B
3980 B 5.220691 3.200876 -3.719235 B
3981 B 5.721375 2.879498 -2.963506 B
3982 B 6.537903 2.438974 -3.151271 B
3983 B 7.342885 2.475978 -3.592785 B
3984 B 7.758948 1.624863 -3.863365 B
3985 A 7.430171 0.821496 -4.304444 A
3986 A 7.240396 -0.011446 -4.743396 A
3987 A 7.050884 -0.568817 -5.515390 A
3988 A 7.467631 -0.130550 -6.290047 A
3989 A 7.934948 -0.721444 -6.908147 A
3990 A 8.922439 -0.602367 -7.139923 A
3991 A 4.270722 2.179646 -9.606224 A
3992 A 3.998855 2.594052 -8.781247 A
3993 A 4.019929 2.800858 -7.838548 A
3994 A 3.845631 2.418586 -6.954611 A
3995 A 4.418001 1.669743 -7.030554 A
3996 A 5.068935 0.980288 -7.329433 A
3997 B 6.012170 0.805757 -7.247153 B
3998 B 6.608276 0.263559 -6.738981 B
3999 B 6.727060 -0.689647 -6.837762 B
4000 B 6.856900 -1.449800 -7.372241 B
4001 B 7.031353 -2.324188 -7.733159 B
4002 B 6.912838 -3.249350 -7.936285 B
4003 B 6.794100 -3.384631 -6.982681 B
4004 A 6.637422 -3.351239 -6.041490 A
4005 A 6.044405 -2.831026 -5.484460 A
4006 A 5.365777 -2.413823 -6.010720 A
4007 A 5.622245 -2.205993 -6.924202 A
4008 A 5.708234 -2.148664 -7.883569 A
4009 A 6.045125 -1.264109 -8.034821 A
4010 A 6.840996 -1.012152 -12.623220 A
4011 A 7.319143 -1.498739 -13.313990 A
4012 A 6.664580 -2.153827 -13.212640 A
4013 A 5.943694 -2.774708 -13.063830 A
4014 A 6.060455 -3.231737 -12.257460 A
4015 A 5.818038 -3.589076 -11.329800 A
4016 B 5.326043 -4.405682 -11.059960 B
4017 B 5.282224 -5.308846 -10.731830 B
4018 B 4.956738 -5.920040 -11.431640 B
4019 B 4.186005 -5.454068 -11.016920 B
4020 B 3.492618 -6.081621 -11.246640 B
4021 B 2.698975 -6.097758 -11.840940 B
4022 B 3.067134 -6.240721 -12.814580 B
4023 A 3.487017 -6.994042 -12.345820 A
4024 A 2.767261 -7.415327 -12.834140 A
4025 A 1.932044 -7.666889 -12.478110 A
4026 A 1.122847 -8.070787 -12.390110 A
4027 A 0.369229 -8.550053 -12.001700 A
4028 A -0.432697 -8.113701 -11.756120 A
4029 A 12.720220 10.939560 -9.322271 A
4030 A 13.362460 10.231410 -9.461854 A
4031 A -13.481440 9.605677 -10.134530 A
4032 A 12.973030 8.934882 -10.343780 A
4033 A 13.261840 8.422800 -11.172840 A
4034 A -13.296300 9.207425 -11.229730 A
4035 B -12.612210 8.679498 -10.810050 B
4036 B -11.738120 7.972845 -10.605410 B
4037 B -10.958830 7.706503 -10.559740 B
4038 B -11.222980 6.949971 -10.999570 B
4039 B -10.281860 6.869600 -11.286610 B
4040 B -9.596402 7.481663 -11.006310 B
4041 B -8.728900 7.911274 -11.206100 B
4042 A -7.923167 8.477956 -11.315140 A
4043 A -7.112506 8.776880 -10.912910 A
4044 A -6.343478 9.317695 -10.936280 A
4045 A -5.395478 9.099738 -10.966550 A
4046 A -4.602850 8.644702 -10.701500 A
4047 A -4.621029 8.348714 -9.767145 A
4048 A 3.285187 1.795403 2.415031 A
4049 A 2.409956 2.059704 2.656022 A
4050 A 2.093032 1.790017 3.552968 A
4051 A 1.974343 1.695154 4.487307 A
4052 A 1.814634 2.501896 4.943594 A
4053 A 1.726869 3.357421 5.385242 A
4054 B 1.815175 3.943097 4.717254 B
4055 B 2.371991 4.575837 4.186705 B
4056 B 3.112003 5.187742 4.256753 B
4057 B 2.305838 5.716640 4.100034 B
4058 B 1.821064 5.547895 4.874031 B
4059 B 1.065549 5.325717 5.428739 B
4060 B 0.121382 5.340294 5.325274 B
4061 A -0.812351 5.688669 5.379691 A
4062 A -0.787225 4.784624 5.626439 A
4063 A -0.214936 4.043126 5.838353 A
4064 A 0.088312 3.159934 6.024501 A
4065 A -0.231198 3.185560 5.127321 A
4066 A -0.188147 3.838215 4.403443 A
4067 A -1.564903 0.581510 10.350990 A
4068 A -1.948337 0.419711 9.416051 A
4069 A -2.439548 0.290031 8.584729 A
4070 A -2.129115 0.580133 7.707978 A
4071 A -2.137441 1.561986 7.592218 A
4072 A -2.930270 2.021180 7.817194 A
4073 B -3.623953 1.452662 7.456648 B
4074 B -3.765465 0.539121 7.283175 B
4075 B -4.674605 0.326253 7.217966 B
4076 B -5.270779 0.809654 7.812398 B
4077 B -5.322180 1.583870 8.376711 B
4078 B -5.023542 2.452264 8.134537 B
4079 B -4.901221 2.965271 7.332656 B
4080 A -4.477949 3.537115 6.580575 A
4081 A -3.930232 4.343688 6.672275 A
4082 A -4.410845 5.134660 6.626750 A
4083 A -4.437382 5.914847 7.204859 A
4084 A -4.076900 6.357216 7.998412 A
4085 A -3.521538 5.653649 8.323371 A
4086 A 6.568806 -6.339341 5.969944 A
4087 A 5.648091 -6.247150 6.188489 A
4088 A 4.773426 -6.628921 6.177228 A
4089 A 4.223362 -5.955058 5.821733 A
4090 A 4.893527 -5.349918 5.427508 A
4091 A 5.785843 -5.150867 5.135632 A
4092 B 6.094072 -4.648826 4.385700 B
4093 B 5.747764 -5.141089 3.640976 B
4094 B 4.851327 -5.243369 4.019925 B
4095 B 4.091004 -5.383554 4.567802 B
4096 B 3.239902 -5.674765 4.873548 B
4097 B 2.350819 -5.812072 4.533044 B
4098 B 1.396082 -5.738759 4.343740 B
4099 A 0.553299 -5.736332 3.880935 A
4100 A -0.372860 -5.519935 3.951239 A
4101 A -1.168461 -5.015796 4.176731 A
4102 A -1.839676 -4.656746 4.772711 A
4103 A -2.557755 -4.487861 5.386983 A
4104 A -3.336027 -4.492450 5.862250 A
4105 A -7.300722 6.356257 8.720112 A
4106 A -7.311583 7.184506 8.191623 A
4107 A -7.249294 7.840315 7.513975 A
4108 A -7.623310 8.175632 6.668430 A
4109 A -7.914172 8.523133 5.820812 A
4110 A -8.263045 8.760624 4.970243 A
4111 B -7.714417 8.537314 4.245459 B
4112 B -7.154332 8.255136 4.942199 B
4113 B -6.922061 7.333242 4.962761 B
4114 B -7.689272 7.041788 5.481417 B
4115 B -8.489631 7.601528 5.552251 B
4116 B -9.445343 7.500764 5.630587 B
4117 B -10.311130 7.297559 5.198708 B
4118 A -11.114990 7.701521 4.907146 A
4119 A -11.153840 8.623914 4.659214 A
4120 A -10.167290 8.538361 4.647187 A
4121 A -10.313270 8.631660 5.589114 A
4122 A -10.336990 8.054852 6.325160 A
4123 A -11.000210 7.582407 6.811076 A
4124 A 6.954042 9.959089 1.190142 A
4125 A 6.497527 10.404060 0.459743 A
4126 A 6.200162 11.315750 0.566203 A
4127 A 6.299457 12.233100 0.732336 A
4128 A 7.173926 11.817750 0.907699 A
4129 A 7.520572 10.958430 0.699303 A
4130 B 8.241463 10.340990 0.811982 B
4131 B 8.545186 9.450855 0.517073 B
4132 B 7.815887 8.997324 0.064724 B
4133 B 7.005215 9.331045 -0.315720 B
4134 B 7.613468 9.956203 -0.748593 B
4135 B 8.319299 10.371400 -1.258705 B
4136 B 9.231280 10.563690 -1.403832 B
4137 A 9.211215 10.179500 -2.267549 A
4138 A 9.048580 10.734930 -3.018307 A
4139 A 9.988311 10.780810 -3.288734 A
4140 A 10.965610 10.699990 -3.324280 A
4141 A 11.462760 11.494700 -3.518700 A
4142 A 12.225610 12.041930 -3.338460 A
4143 A 12.369510 9.493967 4.630154 A
4144 A 12.960560 8.806952 4.276197 A
4145 A 13.315660 8.175928 4.857346 A
4146 A 13.272700 8.344732 5.818577 A
4147 A 13.345630 8.671716 6.715421 A
4148 A -13.226580 9.401329 7.078754 A
4149 B -12.480270 10.062980 6.953590 B
4150 B -12.391920 10.687080 6.188413 B
4151 B -12.534720 11.070600 5.239650 B
4152 B -12.787730 11.614730 4.487315 B
4153 B -12.966610 12.435930 4.036544 B
4154 B -12.802150 12.941330 4.889504 B
4155 B -12.900000 -13.474730 5.567766 B
4156 A -13.082580 -12.602610 5.921447 A
4157 A -13.175300 -11.947140 6.645817 A
4158 A -13.462670 -11.066040 6.667178 A
4159 A -13.138570 -10.520510 5.962288 A
4160 A -13.264820 -9.649805 6.295038 A
4161 A 13.336050 -9.487864 7.099862 A
4162 A -11.096700 -2.595151 -2.290395 A
4163 A -10.796530 -3.374536 -1.832742 A
4164 A -10.969930 -2.697702 -1.209085 A
4165 A -11.146410 -1.825040 -0.994871 A
4166 A -10.575370 -2.278348 -0.310006 A
4167 A -10.345060 -2.016363 0.624267 A
4168 B -10.683400 -1.192929 0.195210 B
4169 B -11.071890 -0.326394 0.261210 B
4170 B -11.422240 0.557438 0.208101 B
4171 B -10.774280 1.109715 -0.195101 B
4172 B -10.403580 0.941308 -1.097979 B
4173 B -10.908610 0.407653 -1.722692 B
4174 B -11.018010 -0.432967 -2.233706 B
4175 A -11.017810 -1.380988 -2.126860 A
4176 A -10.152760 -1.770824 -1.908829 A
4177 A -9.385746 -2.149232 -2.393638 A
4178 A -9.451678 -2.270419 -3.338717 A
4179 A -9.673841 -3.071598 -3.774345 A
4180 A -9.204050 -3.682060 -4.369163 A
4181 A 5.047915 4.911889 0.520021 A
4182 A 4.858851 4.017484 0.194287 A
4183 A 4.379574 3.778235 -0.585734 A
4184 A 4.328673 3.242683 -1.398419 A
4185 A 3.467895 3.309053 -1.895931 A
4186 A 2.813724 3.913316 -2.296072 A
4187 B 3.408402 4.657137 -2.062613 B
4188 B 3.968544 5.396586 -2.325403 B
4189 B 3.323231 5.818491 -2.873523 B
4190 B 2.584675 5.252358 -2.979816 B
4191 B 1.900719 5.336940 -3.651763 B
4192 B 1.828195 6.205395 -4.035544 B
4193 B 1.049087 6.610989 -3.604663 B
4194 A 1.441800 6.026367 -2.899472 A
4195 A 0.722426 5.438290 -2.701039 A
4196 A 0.172766 5.920099 -3.326957 A
4197 A -0.321958 6.688422 -3.581012 A
4198 A -0.512751 6.888407 -4.491657 A
4199 A -0.622052 6.067183 -4.988389 A
4200 A -5.817323 -1.912139 13.532630 A
4201 A -6.057415 -1.135079 12.955840 A
4202 A -6.572594 -0.402181 13.309430 A
4203 A -7.222943 0.238348 13.011500 A
4204 A -7.533596 0.278536 12.112090 A
4205 A -6.588655 0.224934 12.079530 A
4206 B -5.745103 0.389812 12.499730 B
4207 B -4.845319 0.456477 12.842290 B
4208 B -4.286613 -0.237499 12.487450 B
4209 B -4.260822 -1.065919 11.997260 B
4210 B -3.488882 -0.791193 11.556490 B
4211 B -3.128425 -0.843047 12.474640 B
4212 B -3.369548 -0.365594 13.269990 B
4213 A -2.847861 -0.055338 -13.078660 A
4214 A -2.215784 -0.596873 -12.680930 A
4215 A -1.375273 -1.054269 -12.569860 A
4216 A -0.661851 -1.514661 -12.128030 A
4217 A -0.261971 -0.632863 -12.124670 A
4218 A -0.134807 0.145959 -12.647580 A
4219 A 4.234967 8.848206 -11.401630 A
4220 A 4.587751 9.311526 -12.155440 A
4221 A 5.124838 9.733021 -12.864740 A
4222 A 5.530360 10.201130 13.512120 A
4223 A 5.389132 10.513470 12.589110 A
4224 A 5.808986 10.884260 11.800660 A
4225 B 6.166129 11.364520 11.054500 B
4226 B 6.911529 10.929750 10.614660 B
4227 B 7.858610 11.067450 10.629110 B
4228 B 7.677113 11.740040 11.295030 B
4229 B 7.033688 12.398180 11.509630 B
4230 B 6.118540 12.635250 11.691910 B
4231 B 5.320514 12.234360 12.009970 B
4232 A 5.673486 11.746930 12.723570 A
4233 A 6.383039 11.510060 13.324340 A
4234 A 6.818167 11.188650 -12.975610 A
4235 A 7.549774 11.398280 -12.378180 A
4236 A 8.294408 11.219540 -12.965120 A
4237 A 8.637201 10.671750 13.398570 A
4238 A 13.154570 -3.545574 13.006380 A
4239 A 12.445150 -3.557928 -13.434440 A
4240 A 11.909250 -2.721112 13.540990 A
4241 A 10.981640 -2.352531 -13.433180 A
4242 A 10.731400 -3.006693 -12.803160 A
4243 A 10.161610 -3.527557 -12.158220 A
4244 B 10.602190 -3.069767 -11.410530 B
4245 B 10.681050 -2.916785 -10.489210 B
4246 B 11.590330 -3.235895 -10.313430 B
4247 B 12.298300 -3.372793 -10.941100 B
4248 B 12.892680 -3.136923 -11.615240 B
4249 B -13.447480 -2.518060 -11.594190 B
4250 B -13.297720 -1.578329 -11.751810 B
4251 A -13.485830 -1.675541 -12.694120 A
4252 A 13.365110 -1.803154 13.482990 A
4253 A 13.042200 -2.197737 12.666400 A
4254 A 12.952220 -2.558125 11.762060 A
4255 A 13.094040 -1.665935 11.444610 A
4256 A 12.863030 -0.731440 11.484670 A
4257 A -13.297500 -9.708253 -5.628723 A
4258 A 13.247900 -10.426820 -5.891959 A
4259 A 12.508090 -11.000120 -5.981178 A
4260 A 11.969920 -11.469090 -6.622209 A
4261 A 11.207170 -11.662650 -7.167998 A
4262 A 10.313290 -11.581580 -7.585806 A
4263 B 10.005150 -10.950290 -8.227262 B
4264 B 9.976408 -10.044730 -8.503572 B
4265 B 10.485970 -9.613531 -7.840987 B
4266 B 10.496770 -9.286462 -6.916602 B
4267 B 10.097610 -8.444232 -6.913943 B
4268 B 10.893010 -8.250798 -7.367856 B
4269 B 11.737090 -8.564982 -7.005149 B
4270 A 12.439470 -7.928601 -6.839054 A
4271 A 12.419950 -6.973381 -6.975520 A
4272 A 12.227980 -6.115467 -7.366692 A
4273 A 11.377360 -6.459044 -7.200280 A
4274 A 10.918950 -6.850371 -6.473061 A
4275 A 10.707570 -7.611802 -5.926457 A
4276 A 6.286341 -12.476800 -1.133250 A
4277 A 6.694081 -13.116900 -0.536496 A
4278 A 7.554706 -13.217340 -0.020261 A
4279 A 8.502041 -13.334030 0.066983 A
4280 A 8.628017 -13.311750 -0.871660 A
4281 A 8.370825 13.432950 -1.684653 A
4282 B 7.867252 13.417100 -2.495251 B
4283 B 7.489949 -13.444030 -3.377452 B
4284 B 7.448586 -12.553560 -3.722825 B
4285 B 7.148097 -12.161910 -2.862770 B
4286 B 6.580810 -12.084510 -2.093878 B
4287 B 7.069336 -12.884330 -1.832704 B
4288 B 7.066210 13.273240 -1.714284 B
4289 A 6.269317 -13.469500 -2.119243 A
4290 A 5.575061 -12.811470 -2.328138 A
4291 A 5.323158 -11.902240 -2.151197 A
4292 A 5.312521 -10.947730 -1.987693 A
4293 A 4.601591 -11.037630 -1.318844 A
4294 A 4.074710 -10.487550 -0.685593 A
4295 A -5.961969 4.993704 13.409540 A
4296 A -5.490818 5.664577 12.916000 A
4297 A -4.980694 5.121074 12.345250 A
4298 A -4.472242 4.405809 11.937210 A
4299 A -4.083983 3.510828 11.950270 A
4300 A -3.716944 3.100794 12.747190 A
4301 B -3.115794 3.395905 13.500530 B
4302 B -2.690824 4.216227 -13.380030 B
4303 B -2.242576 4.990467 -12.950880 B
4304 B -1.962745 5.889871 -12.684510 B
4305 B -1.401783 6.550090 -12.255870 B
4306 B -1.356253 6.611269 -13.217290 B
4307 B -1.460337 5.972149 13.198490 B
4308 A -1.757546 5.139635 12.765820 A
4309 A -2.225926 4.359724 12.544320 A
4310 A -2.825767 3.657105 12.348360 A
4311 A -3.012415 2.940813 11.739230 A
4312 A -2.712944 2.039889 11.694650 A
4313 A -2.428296 1.270984 11.211050 A
4314 A -2.895625 8.483932 -6.135220 A
4315 A -3.727447 8.378165 -5.708395 A
4316 A -4.622323 8.698762 -5.534373 A
4317 A -5.275344 9.275052 -5.086266 A
4318 A -4.666870 10.017680 -4.976120 A
4319 A -3.824144 10.424670 -4.807939 A
4320 B -3.146863 10.352650 -5.461685 B
4321 B -3.361200 10.430000 -6.389596 B
4322 B -2.856504 9.744499 -6.865403 B
4323 B -2.121187 9.327379 -7.296278 B
4324 B -1.405249 9.124187 -6.680705 B
4325 B -1.627092 9.288841 -5.753131 B
4326 B -2.002108 9.771073 -4.996758 B
4327 A -2.338690 9.946378 -4.107851 A
4328 A -2.071529 9.014681 -4.157538 A
4329 A -2.086620 8.549544 -5.007390 A
4330 A -1.344221 7.962658 -5.080619 A
4331 A -1.871094 7.265263 -4.699947 A
4332 A -1.859327 7.306274 -3.750315 A
4333 A -3.717441 9.291083 -8.536155 A
4334 A -4.597951 8.929611 -8.398166 A
4335 A -5.381189 9.322494 -8.647472 A
4336 A -4.984478 9.607164 -9.403060 A
4337 A -4.254819 9.462361 -10.027690 A
4338 A -3.336162 9.265415 -10.272740 A
4339 B -2.751043 8.558117 -10.510680 B
4340 B -2.992374 7.727392 -10.076830 B
4341 B -2.948386 6.870001 -9.662146 B
4342 B -2.299817 6.551438 -8.989413 B
4343 B -1.423019 6.488525 -9.397729 B
4344 B -1.309904 6.707775 -10.340000 B
4345 B -1.724512 7.565032 -10.485410 B
4346 A -1.868853 7.603120 -9.528151 A
4347 A -1.949573 7.685615 -8.573388 A
4348 A -1.201917 7.192816 -8.257438 A
4349 A -0.418336 6.730903 -7.927994 A
4350 A 0.145984 5.938260 -7.921109 A
4351 A 1.052852 5.708325 -8.011404 A
4352 A -4.449900 -10.359690 10.151970 A
4353 A -3.905319 -11.007950 10.621290 A
4354 A -4.099964 -11.923530 10.634420 A
4355 A -3.782888 -12.806740 10.676950 A
4356 A -3.594113 -13.238510 9.857656 A
4357 A -3.668640 13.025990 9.392976 A
4358 B -3.954254 13.369790 8.540919 B
4359 B -3.583280 -12.936890 8.118650 B
4360 B -3.088987 -12.177420 8.397428 B
4361 B -2.713765 -11.563970 9.044726 B
4362 B -2.553370 -11.819640 9.925512 B
4363 B -2.520359 -12.625560 10.413740 B
4364 B -2.345176 13.536470 10.559480 B
4365 A -1.726471 13.158780 11.195870 A
4366 A -0.821229 13.436720 11.027580 A
4367 A -0.479909 -12.815880 10.693340 A
4368 A -0.124105 -11.943900 10.567160 A
4369 A 0.357620 -11.699890 9.766261 A
4370 A 0.669903 -11.506470 8.902164 A
4371 A 2.365615 8.677855 -12.376110 A
4372 A 2.510243 9.116968 -13.256520 A
4373 A 1.893502 9.702868 -12.812930 A
4374 A 1.409465 9.845320 -11.994640 A
4375 A 1.185964 10.277900 -11.108730 A
4376 A 0.435617 9.776312 -10.675060 A
4377 B 0.565009 8.886013 -10.455980 B
4378 B 0.618448 7.932585 -10.792040 B
4379 B -0.232969 7.915371 -11.225510 B
4380 B -1.115517 8.219978 -11.256740 B
4381 B -1.000512 9.177564 -11.241070 B
4382 B -0.598687 10.022400 -10.976570 B
4383 B -0.300125 9.741092 -11.823070 B
4384 A -0.276599 9.054869 -12.519630 A
4385 A -0.210250 8.109535 -12.813680 A
4386 A -0.594332 7.316175 -13.273770 A
4387 A -0.754639 7.242680 12.866240 A
4388 A -1.077815 7.542920 11.991550 A
4389 A -1.757558 8.056129 11.514270 A
4390 A -7.586199 9.201933 -6.744037 A
4391 A -7.555763 8.299816 -6.891029 A
4392 A -7.242036 7.397768 -7.027395 A
4393 A -6.261472 7.335869 -7.088738 A
4394 A -6.452533 8.313982 -7.099252 A
4395 A -6.598815 8.469254 -6.108403 A
4396 B -6.759182 7.622669 -5.720212 B
4397 B -6.908788 6.639222 -5.688990 B
4398 B -7.466374 5.917645 -6.017211 B
4399 B -7.282180 5.096838 -5.510761 B
4400 B -6.676788 4.607266 -4.949829 B
4401 B -6.390993 5.014890 -4.076415 B
4402 B -5.747576 4.716111 -3.476603 B
4403 A -4.975376 5.133294 -2.959105 A
4404 A -4.762968 5.917931 -2.505553 A
4405 A -4.004291 6.398301 -2.813803 A
4406 A -4.519371 6.951547 -3.420488 A
4407 A -4.765263 7.478489 -4.189064 A
4408 A -5.274753 7.950385 -4.862286 A
4409 A 1.264139 9.465660 2.090214 A
4410 A 1.035261 10.352850 1.899259 A
4411 A 0.300315 10.966370 1.743604 A
4412 A 0.223091 11.917690 2.071944 A
4413 A 0.259428 12.346690 2.968385 A
4414 A 0.416675 12.022870 3.840592 A
4415 B 0.763603 11.595760 4.643376 B
4416 B 1.060418 11.143730 5.450848 B
4417 B 1.291545 10.224670 5.552063 B
4418 B 1.336593 10.433610 4.621329 B
4419 B 0.875356 9.873955 3.994537 B
4420 B 0.175639 9.985992 3.335492 B
4421 B -0.241966 9.660611 2.529645 B
4422 A -1.154956 9.462308 2.255024 A
4423 A -1.505062 10.268180 2.651308 A
4424 A -2.122964 10.798600 2.150144 A
4425 A -3.027522 10.904510 1.924293 A
4426 A -3.781795 11.212350 2.438707 A
4427 A -3.110925 11.140210 3.085601 A
4428 A -0.069727 -1.711191 -8.559379 A
4429 A -0.095170 -2.541744 -8.152409 A
4430 A -0.539244 -3.258079 -7.680164 A
4431 A -1.058924 -4.047266 -8.029390 A
4432 A -1.802697 -4.544150 -7.606715 A
4433 A -2.608890 -4.760080 -8.002472 A
4434 B -3.398277 -4.263938 -7.988593 B
4435 B -3.050548 -4.325462 -7.088954 B
4436 B -2.678572 -5.210383 -6.844627 B
4437 B -1.966141 -5.825759 -7.027579 B
4438 B -1.178787 -6.273200 -7.343844 B
4439 B -0.417019 -6.784930 -7.553105 B
4440 B 0.122696 -7.514363 -7.304391 B
4441 A 0.789698 -8.278261 -7.298254 A
4442 A 1.274208 -8.424420 -6.532470 A
4443 A 1.686101 -8.335929 -5.711913 A
4444 A 1.148427 -7.802517 -5.112962 A
4445 A 0.505548 -7.041587 -5.043072 A
4446 A 0.004323 -6.208118 -5.104191 A
4447 A 0.399459 3.107136 -0.982010 A
4448 A 0.753263 3.795222 -1.557221 A
4449 A 1.120925 4.575301 -1.974976 A
4450 A 1.257270 5.500322 -1.672831 A
4451 A 0.588085 5.606147 -0.978420 A
4452 A -0.279485 5.900404 -0.627922 A
4453 B -0.364466 6.696913 -1.171683 B
4454 B -0.140476 6.885434 -2.063702 B
4455 B 0.750076 6.865226 -1.801553 B
4456 B 1.308277 6.480165 -1.044866 B
4457 B 1.768234 5.712592 -0.686866 B
4458 B 1.503109 4.817631 -0.692027 B
4459 B 0.825272 4.357653 -0.204707 B
4460 A -0.076580 4.160243 0.086650 A
4461 A -1.001257 4.008928 0.156072 A
4462 A -1.960414 4.020417 -0.144440 A
4463 A -2.677507 4.379595 -0.673645 A
4464 A -3.132144 5.121560 -0.366058 A
4465 A -3.739820 5.854957 -0.606040 A
4466 A -0.684485 8.715933 10.126080 A
4467 A -0.089406 8.477448 9.404702 A
4468 A -0.724703 8.601552 8.707598 A
4469 A -1.627164 8.310435 8.445803 A
4470 A -2.244456 7.589394 8.461356 A
4471 A -1.520765 7.082617 8.875535 A
4472 B -0.693394 6.583632 8.649220 B
4473 B -0.396233 6.218771 9.512495 B
4474 B 0.215638 6.920905 9.428772 B
4475 B 0.494474 7.601320 10.082210 B
4476 B 0.189384 7.543155 10.988220 B
4477 B 0.669004 7.342541 11.805730 B
4478 B 0.208927 6.856009 12.437360 B
4479 A 0.806736 6.186830 12.089030 A
4480 A 1.284083 5.402277 11.604450 A
4481 A 1.785552 4.506779 11.496440 A
4482 A 1.381184 3.592377 11.534440 A
4483 A 0.495693 3.373907 11.742120 A
4484 A -0.244532 3.661086 12.222210 A
4485 A 4.447368 6.227299 1.800683 A
4486 A 4.042236 6.520763 2.638844 A
4487 A 3.637825 6.550365 3.518180 A
4488 A 3.364720 6.418666 4.437166 A
4489 A 2.665406 6.210779 5.040908 A
4490 A 1.940589 6.283045 5.655371 A
4491 B 2.359468 7.136487 5.746729 B
4492 B 3.191452 7.573441 5.790918 B
4493 B 4.051526 7.312335 5.466264 B
4494 B 4.815243 7.649094 4.968723 B
4495 B 5.339284 8.452075 5.059897 B
4496 B 5.682914 9.321391 4.851461 B
4497 B 5.953557 9.867618 5.572426 B
4498 A 6.781117 9.678393 5.991195 A
4499 A 7.154184 8.793228 6.103286 A
4500 A 7.512350 7.910184 5.932534 A
4501 A 7.230488 7.644853 5.035650 A
4502 A 7.034145 6.982921 4.374662 A
4503 A 6.880936 6.494699 3.560310 A
4504 A 3.988842 -7.955213 -12.758020 A
4505 A 4.753292 -8.521556 -12.647690 A
4506 A 5.085520 -8.728235 -11.737250 A
4507 A 4.951498 -8.122898 -10.995840 A
4508 A 4.944189 -8.768214 -10.308260 A
4509 A 5.084767 -9.713518 -10.105260 A
4510 B 5.713992 -10.428410 -10.358820 B
4511 B 6.469603 -10.848530 -10.875230 B
4512 B 6.493281 -11.261830 -9.990409 B
4513 B 6.983622 -10.693640 -9.397703 B
4514 B 6.777904 -10.318090 -8.529942 B
4515 B 5.942331 -10.140070 -8.109349 B
4516 B 5.410459 -9.413775 -7.728822 B
4517 A 4.808846 -9.764651 -6.991722 A
4518 A 4.230722 -9.901877 -7.746167 A
4519 A 3.530556 -10.040860 -8.400648 A
4520 A 3.727698 -9.625314 -9.228426 A
4521 A 4.446717 -10.291200 -9.471755 A
4522 A 5.386684 -10.522910 -9.195110 A
4523 A 4.008260 5.771726 0.837543 A
4524 A 3.789544 5.689720 -0.101214 A
4525 A 3.786513 5.768710 -1.055150 A
4526 A 3.414767 6.409465 -1.683556 A
4527 A 3.169243 7.045045 -2.370769 A
4528 A 2.817448 7.121590 -3.271247 A
4529 B 2.570086 7.258940 -4.201953 B
4530 B 2.886252 6.354615 -4.368292 B
4531 B 3.179872 5.447917 -4.195029 B
4532 B 2.883599 4.564491 -3.876606 B
4533 B 2.276524 4.005926 -3.363426 B
4534 B 1.632283 4.349895 -3.977068 B
4535 B 1.816442 3.995543 -4.851649 B
4536 A 2.558460 3.453577 -4.557131 A
4537 A 3.342668 3.360884 -4.001082 A
4538 A 3.293432 2.898893 -3.146019 A
4539 A 2.627893 2.258038 -3.396535 A
4540 A 2.532375 1.679711 -4.154731 A
4541 A 1.844414 1.099930 -4.537449 A
4542 A -2.665707 0.809285 -5.482956 A
4543 A -1.798870 1.157091 -5.239615 A
4544 A -1.082597 1.251219 -4.598944 A
4545 A -1.194852 1.451984 -3.673968 A
4546 A -1.153967 0.565553 -3.209478 A
4547 A -1.585176 0.033760 -2.570732 A
4548 B -2.243503 0.162607 -1.901484 B
4549 B -2.011635 0.676528 -1.168581 B
4550 B -1.144826 0.252494 -1.032290 B
4551 B -0.757708 0.004414 -1.836968 B
4552 B -0.410711 -0.732628 -2.326092 B
4553 B -1.051415 -1.232067 -2.770305 B
4554 B -1.118942 -1.833841 -3.533570 B
4555 A -2.018626 -1.688136 -3.847062 A
4556 A -2.775598 -1.524486 -3.247700 A
4557 A -3.404945 -2.111976 -2.845594 A
4558 A -3.427797 -3.045174 -2.664478 A
4559 A -2.867043 -3.709389 -2.252251 A
4560 A -2.726597 -4.570913 -1.879686 A
4561 A -13.331350 -4.801763 12.752440 A
4562 A -13.309770 -5.546305 12.140570 A
4563 A -13.183550 -5.839891 11.228780 A
4564 A 13.490720 -6.387948 10.556680 A
4565 A 12.639880 -6.422111 10.106510 A
4566 A 12.675390 -7.326962 10.393990 A
4567 B 13.154730 -7.832609 11.050950 B
4568 B -13.212610 -8.438519 11.310390 B
4569 B -12.489640 -9.036080 11.107970 B
4570 B -12.267230 -9.930437 11.364790 B
4571 B -12.229180 -10.802990 11.794860 B
4572 B -11.720950 -11.513970 12.156240 B
4573 B -11.019680 -11.972550 12.642580 B
4574 A -10.527570 -12.239610 13.445110 A
4575 A -9.972005 -11.538190 -13.319290 A
4576 A -10.252960 -10.652500 13.546210 A
4577 A -11.059160 -10.233590 13.220050 A
4578 A -12.018430 -10.036910 13.160710 A
4579 A -12.165980 -9.130057 12.960160 A
4580 A 10.863080 -5.837209 0.975019 A
4581 A 10.907920 -4.962285 1.411773 A
4582 A 10.785730 -4.518674 2.274146 A
4583 A 10.365660 -4.202828 3.081853 A
4584 A 9.840133 -5.003463 2.996057 A
4585 A 9.348878 -5.645925 2.482781 A
4586 B 9.798976 -5.259262 1.740681 B
4587 B 9.799699 -4.301173 1.561032 B
4588 B 9.330657 -3.520915 1.849950 B
4589 B 9.147046 -4.158965 2.552722 B
4590 B 8.786310 -4.817286 3.182683 B
4591 B 8.659818 -5.751337 3.321777 B
4592 B 8.775070 -6.624058 2.906204 B
4593 A 9.391925 -6.641748 2.125367 A
4594 A 10.263270 -6.340001 1.807458 A
4595 A 10.850870 -5.692945 2.204378 A
4596 A 11.538090 -5.602367 2.852816 A
4597 A 11.028680 -6.257349 3.302716 A
4598 A 10.448620 -6.502977 4.057487 A
4599 A -12.817210 -2.036274 9.406110 A
4600 A -12.285690 -2.620702 8.868857 A
4601 A -12.583130 -3.292466 8.293006 A
4602 A -12.812590 -3.821857 7.516252 A
4603 A -12.015710 -4.330287 7.219573 A
4604 A -11.557460 -5.048301 6.799428 A
4605 B -10.927170 -5.680007 7.176503 B
4606 B -10.481840 -6.361983 7.677051 B
4607 B -9.578542 -6.424939 7.207856 B
4608 B -9.264876 -5.731986 6.669703 B
4609 B -9.288372 -4.783308 6.639828 B
4610 B -9.301682 -3.840286 6.350137 B
4611 B -9.023360 -3.950513 5.433939 B
4612 A -9.057031 -3.386506 4.605051 A
4613 A -9.176244 -3.216825 3.672055 A
4614 A -8.776175 -3.817635 3.054755 A
4615 A -8.857430 -4.441680 3.779610 A
4616 A -8.766247 -5.187061 4.335849 A
4617 A -7.972769 -5.465638 4.770267 A
4618 A 6.174779 8.382109 -10.191040 A
4619 A 6.979395 8.016458 -9.775584 A
4620 A 7.547706 7.373148 -9.328923 A
4621 A 6.962140 6.622127 -9.420705 A
4622 A 6.146678 6.768801 -9.904629 A
4623 A 5.378778 7.160486 -10.344700 A
4624 B 4.717376 7.501446 -10.963560 B
4625 B 4.441628 7.822017 -11.841330 B
4626 B 5.231383 7.602887 -12.365120 B
4627 B 5.799382 7.225939 -11.664900 B
4628 B 6.364431 6.653687 -11.126790 B
4629 B 6.470450 5.858263 -10.610120 B
4630 B 6.420993 4.994571 -10.165640 B
4631 A 6.640726 4.058063 -10.226370 A
4632 A 6.458810 3.191789 -10.603460 A
4633 A 6.208016 2.678124 -11.345730 A
4634 A 5.911606 1.969413 -11.927410 A
4635 A 5.636611 1.063566 -12.033550 A
4636 A 5.052328 0.427576 -12.390610 A
4637 A 5.456418 13.187240 -3.616600 A
4638 A 6.279119 13.156830 -4.080917 A
4639 A 7.109265 13.503520 -4.495652 A
4640 A 6.339168 -13.067170 -4.695264 A
4641 A 5.856489 -12.852270 -3.851319 A
4642 A 5.085939 -12.697250 -3.278664 A
4643 B 4.408593 -12.249950 -2.733881 B
4644 B 4.073735 -11.571520 -2.102232 B
4645 B 3.622157 -10.776670 -1.776059 B
4646 B 3.070146 -10.009110 -1.832104 B
4647 B 3.251514 -9.070884 -1.791896 B
4648 B 4.010726 -8.685428 -2.255079 B
4649 B 4.842512 -8.393625 -2.642385 B
4650 A 5.675989 -8.169602 -3.159500 A
4651 A 6.269069 -8.738601 -3.707211 A
4652 A 7.039098 -9.346313 -3.708159 A
4653 A 7.520385 -10.149400 -4.109661 A
4654 A 7.011368 -10.875320 -4.438511 A
4655 A 6.167585 -10.977840 -4.882021 A
4656 A -13.384650 12.764000 -4.440788 A
4657 A 12.818900 12.648940 -4.049222 A
4658 A 12.101160 13.239200 -4.008764 A
4659 A 11.704620 -13.190410 -3.393037 A
4660 A 10.960750 -13.144440 -2.774558 A
4661 A 10.226960 -12.865080 -2.211154 A
4662 B 9.773444 13.405630 -2.047960 B
4663 B 9.106017 12.892050 -2.498454 B
4664 B 9.019120 12.142630 -3.035307 B
4665 B 9.746970 12.280770 -3.611152 B
4666 B 10.181120 12.683240 -2.855400 B
4667 B 10.421010 12.428940 -1.952752 B
4668 B 11.075610 13.098020 -1.882123 B
4669 A 10.680200 -13.346270 -1.182397 A
4670 A 10.550840 13.019810 -0.598426 A
4671 A 11.229280 12.469730 -0.251582 A
4672 A 11.551750 11.632070 -0.502186 A
4673 A 11.463000 10.690910 -0.520978 A
4674 A 10.821010 10.673080 -1.189708 A
4675 A -11.242310 12.756150 -5.384757 A
4676 A -11.278610 12.693360 -4.426024 A
4677 A -10.415500 12.668010 -4.028212 A
4678 A -10.333100 12.967120 -3.073151 A
4679 A -11.235240 12.922720 -3.058412 A
4680 A -11.660590 12.556300 -2.322802 A
4681 B -11.682590 11.884140 -3.005408 B
4682 B -10.940230 11.346080 -2.930867 B
4683 B -10.309590 10.935400 -2.334139 B
4684 B -10.111910 10.301970 -1.730016 B
4685 B -10.774930 9.636249 -1.710238 B
4686 B -11.057180 10.423180 -1.226138 B
4687 B -11.993490 10.483290 -1.429388 B
4688 A -12.461770 10.324140 -2.274712 A
4689 A -12.543510 10.477710 -3.247686 A
4690 A -12.877310 10.712620 -4.132608 A
4691 A -13.495710 11.025180 -4.769996 A
4692 A 12.746800 10.967980 -5.168227 A
4693 A 12.137280 10.226040 -5.544728 A
4694 A 6.590936 9.373841 11.901340 A
4695 A 6.678666 8.452902 11.684990 A
4696 A 6.784326 7.708783 11.048560 A
4697 A 7.136338 6.923315 10.618790 A
4698 A 7.297808 6.282676 9.940518 A
4699 A 6.843416 5.496683 10.251210 A
4700 B 5.897316 5.633273 10.488520 B
4701 B 6.517355 6.171696 11.131500 B
4702 B 5.910717 6.357339 11.820040 B
4703 B 5.916533 5.897378 12.676160 B
4704 B 6.862450 5.504459 12.626490 B
4705 B 7.474507 5.540496 11.878190 B
4706 B 8.050407 4.820588 12.198400 B
4707 A 7.386647 4.106997 11.974000 A
4708 A 7.342674 4.456874 12.878190 A
4709 A 6.595687 4.164929 13.469740 A
4710 A 6.976933 4.447327 -12.802750 A
4711 A 7.443116 5.024370 -12.203250 A
4712 A 8.068131 5.163153 -11.478180 A
4713 A -4.470406 -2.639017 6.901243 A
4714 A -4.261087 -1.720364 6.760232 A
4715 A -4.592045 -1.170268 6.024008 A
4716 A -5.360119 -1.512153 5.570714 A
4717 A -5.785699 -2.058020 4.909941 A
4718 A -5.954162 -2.658494 4.156867 A
4719 B -5.840701 -3.231242 3.334023 B
4720 B -5.484274 -3.924477 2.762302 B
4721 B -4.664151 -3.388231 2.714735 B
4722 B -4.442582 -2.536346 3.112753 B
4723 B -4.758688 -1.647881 3.342412 B
4724 B -4.763161 -1.661669 4.306327 B
4725 B -4.538794 -2.203123 5.042241 B
4726 A -4.356314 -2.941510 5.616809 A
4727 A -3.976350 -3.647894 6.145646 A
4728 A -4.266736 -4.403681 6.669143 A
4729 A -5.087741 -4.523143 7.169464 A
4730 A -5.439012 -3.673524 6.889431 A
4731 A -5.777270 -4.169565 6.124535 A
4732 A -9.846456 9.466846 6.215081 A
4733 A -9.873929 9.849194 5.328913 A
4734 A -9.516240 10.754670 5.425001 A
4735 A -9.160446 11.162100 6.214668 A
4736 A -9.689989 10.532190 6.754851 A
4737 A -10.481440 10.505130 7.304924 A
4738 B -11.227930 10.450870 7.904078 B
4739 B -11.646370 10.172600 8.721868 B
4740 B -11.662810 9.781139 9.601197 B
4741 B -11.576660 8.989676 10.135100 B
4742 B -11.396390 9.250774 11.055340 B
4743 B -11.497320 10.022300 11.625290 B
4744 B -11.266800 10.890360 11.294980 B
4745 A -11.351720 11.859350 11.252130 A
4746 A -12.256360 11.874360 11.557440 A
4747 A -13.051750 11.349290 11.574340 A
4748 A -13.402560 10.448520 11.693510 A
4749 A 13.473340 9.542057 11.915320 A
4750 A 12.911230 8.870699 11.531920 A
4751 A 9.786117 9.205038 1.150918 A
4752 A 10.566240 8.685691 1.416249 A
4753 A 11.353860 8.873552 1.949072 A
4754 A 11.337150 9.845481 1.807327 A
4755 A 10.375780 10.118500 1.829309 A
4756 A 9.516141 10.375270 1.415730 A
4757 B 8.891758 11.138860 1.526403 B
4758 B 8.023469 11.480050 1.547641 B
4759 B 8.053185 12.455450 1.296848 B
4760 B 8.890047 12.599730 0.820007 B
4761 B 9.183458 12.728310 1.712135 B
4762 B 8.551160 12.695760 2.480056 B
4763 B 8.021205 13.381740 2.915293 B
4764 A 8.173367 -12.807340 3.163059 A
4765 A 8.032272 -11.847320 3.005656 A
4766 A 8.479755 -12.126380 2.196878 A
4767 A 8.623017 -12.253210 1.291041 A
4768 A 8.745355 -11.713340 0.520909 A
4769 A 8.932169 -10.769620 0.360613 A
4770 A -10.696090 0.949143 -3.746759 A
4771 A -11.122450 0.296944 -4.260880 A
4772 A -10.740570 1.016398 -4.845490 A
4773 A -10.887560 1.730894 -5.488618 A
4774 A -10.710350 2.041158 -6.357061 A
4775 A -10.379670 2.677074 -5.680753 A
4776 B -11.169570 2.710337 -5.150278 B
4777 B -11.883480 3.351458 -5.076706 B
4778 B -12.234450 4.076928 -4.591717 B
4779 B -12.159390 5.025698 -4.606663 B
4780 B -12.600100 5.141954 -5.469708 B
4781 B -12.480610 5.454329 -6.376635 B
4782 B -12.886050 6.107013 -6.962502 B
4783 A -12.897060 6.815502 -7.636576 A
4784 A -12.228850 7.457697 -7.399142 A
4785 A -11.427890 7.592576 -6.875977 A
4786 A -11.113230 7.929623 -6.023286 A
4787 A -10.906570 8.714211 -6.537066 A
4788 A -11.163080 9.643907 -6.638195 A
4789 A 10.092150 9.418669 -6.562006 A
4790 A 9.769479 8.858029 -5.894699 A
4791 A 9.164526 8.391586 -5.340763 A
4792 A 9.342693 7.576287 -4.849627 A
4793 A 9.500553 7.222285 -3.950641 A
4794 A 10.257900 7.646429 -3.560225 A
4795 B 10.267220 8.597057 -3.683571 B
4796 B 9.326741 8.502007 -3.764688 B
4797 B 8.496107 8.104197 -4.095595 B
4798 B 7.596944 8.069005 -3.776177 B
4799 B 7.001101 7.446763 -4.176611 B
4800 B 7.798936 6.945564 -3.970806 B
4801 B 8.626768 6.711698 -3.546845 B
4802 A 8.500383 5.899573 -4.050295 A
4803 A 7.773193 5.402498 -4.394766 A
4804 A 7.579104 4.467793 -4.462071 A
4805 A 8.198090 4.215844 -5.165698 A
4806 A 9.019395 3.935792 -4.747606 A
4807 A 8.867385 4.721915 -4.225872 A
4808 A 10.006140 10.533400 -13.313940 A
4809 A 10.689900 10.784720 13.148750 A
4810 A 11.057800 10.648320 12.255250 A
4811 A 10.499020 10.442010 11.524170 A
4812 A 10.003120 9.851467 10.950230 A
4813 A 9.856094 9.292197 10.203620 A
4814 B 10.730180 9.153783 9.809676 B
4815 B 11.661290 8.926956 9.649783 B
4816 B 12.470760 8.585684 10.032860 B
4817 B 13.037900 7.890604 9.702589 B
4818 B 12.622440 7.144360 9.302027 B
4819 B 11.875560 7.163916 8.682272 B
4820 B 11.913420 8.109108 8.521724 B
4821 A 11.534140 8.825137 7.973074 A
4822 A 11.254800 9.525130 8.548305 A
4823 A 10.853330 10.239380 9.047597 A
4824 A 10.011850 10.000560 9.416317 A
4825 A 9.962518 10.653380 10.103220 A
4826 A 9.860115 11.201880 10.896200 A
4827 A 12.672950 0.101080 -10.209780 A
4828 A 12.918240 0.818392 -10.762640 A
4829 A 13.395700 1.497821 -11.246350 A
4830 A -13.113490 2.178204 -10.919650 A
4831 A -12.238140 2.136703 -10.506050 A
4832 A -12.152090 1.191700 -10.653290 A
4833 B -12.413690 0.328081 -10.283350 B
4834 B -12.721680 -0.483693 -9.897121 B
4835 B 13.500530 -0.321363 -9.530896 B
4836 B 12.861780 0.240433 -9.085249 B
4837 B 12.743820 0.597649 -8.203483 B
4838 B 12.613050 0.912877 -7.310213 B
4839 B 13.294000 0.263851 -7.120640 B
4840 A -13.477610 -0.559332 -6.781460 A
4841 A -13.192010 -0.982573 -5.986816 A
4842 A -13.058840 -1.677728 -5.346681 A
4843 A -13.341150 -2.583611 -5.491731 A
4844 A 13.356880 -3.437268 -5.734966 A
4845 A 12.831130 -4.234459 -5.589150 A
4846 A -4.647448 -2.333322 -2.248506 A
4847 A -5.454497 -2.672334 -1.951278 A
4848 A -6.082766 -1.914729 -1.965738 A
4849 A -5.888362 -0.939982 -1.941320 A
4850 A -4.961875 -0.979454 -1.793629 A
4851 A -4.155010 -0.797979 -1.305244 A
4852 B -3.257301 -0.943844 -0.979438 B
4853 B -3.028382 -1.296532 -0.154283 B
4854 B -3.452653 -2.094784 0.184384 B
4855 B -3.330620 -2.509825 1.032509 B
4856 B -3.533684 -1.957084 1.832555 B
4857 B -4.417873 -2.270861 1.747550 B
4858 B -4.973480 -1.699206 2.289800 B
4859 A -4.198429 -1.097388 2.283357 A
4860 A -3.694076 -0.594549 1.649690 A
4861 A -2.876108 -0.230644 1.431676 A
4862 A -2.551183 -1.105217 1.765790 A
4863 A -3.027782 -1.395499 0.965203 A
4864 A -3.981523 -1.389541 0.966724 A
4865 A 4.109584 10.474430 5.233564 A
4866 A 4.936128 10.860440 4.884835 A
4867 A 5.049321 10.821010 3.933612 A
4868 A 4.735970 10.102730 3.388858 A
4869 A 5.018843 9.709171 2.576046 A
4870 A 5.326086 8.875485 2.201521 A
4871 B 5.688270 8.307948 1.516729 B
4872 B 5.845304 8.100452 0.587046 B
4873 B 5.488136 8.691013 -0.079427 B
4874 B 5.037261 9.546666 -0.103355 B
4875 B 4.427273 9.984070 0.516224 B
4876 B 4.448203 9.068543 0.832420 B
4877 B 4.304120 8.127220 0.760289 B
4878 A 4.837414 7.739714 0.047951 A
4879 A 5.087873 7.389498 -0.805159 A
4880 A 4.277210 6.887413 -0.699565 A
4881 A 4.133900 6.964222 0.247655 A
4882 A 3.550615 6.746000 0.962096 A
4883 A 3.362479 6.901352 1.882286 A
4884 A -10.507080 -8.184702 -1.923411 A
4885 A -10.733950 -8.137816 -2.858864 A
4886 A -10.938150 -7.220333 -2.902494 A
4887 A -11.637820 -6.724124 -2.483283 A
4888 A -12.013480 -7.223860 -3.234673 A
4889 A -11.828020 -8.004870 -3.785863 A
4890 B -10.909320 -7.811772 -3.971172 B
4891 B -11.432010 -7.035581 -4.298448 B
4892 B -12.037530 -6.319067 -4.484863 B
4893 B -12.954520 -6.123587 -4.731996 B
4894 B 13.461760 -5.809112 -5.300442 B
4895 B 13.058880 -5.325364 -6.017232 B
4896 B 12.603530 -4.798896 -6.676348 B
4897 A 12.988420 -4.810298 -7.544226 A
4898 A -13.436590 -5.005777 -6.924437 A
4899 A -12.802450 -5.674847 -6.698981 A
4900 A -11.919210 -5.978219 -6.377283 A
4901 A -11.217010 -6.119279 -7.035028 A
4902 A -11.597840 -5.487128 -7.542973 A
4903 A 11.791960 -0.547948 6.012002 A
4904 A 11.700380 -1.459310 6.346885 A
4905 A 12.159940 -2.042006 6.950541 A
4906 A 12.982570 -2.347415 7.353180 A
4907 A 13.528400 -2.495513 8.122474 A
4908 A 13.204830 -3.110735 8.783922 A
4909 B 12.985640 -3.692945 8.021343 B
4910 B 12.229770 -4.117330 7.633096 B
4911 B 11.340690 -4.283805 7.264894 B
4912 B 10.439890 -4.100626 6.925408 B
4913 B 10.619960 -3.239792 6.565782 B
4914 B 11.566970 -2.990283 6.463022 B
4915 B 12.098730 -3.712242 6.117322 B
4916 A 11.617060 -4.555035 5.954998 A
4917 A 10.720130 -4.785541 6.091629 A
4918 A 9.969840 -5.009801 6.564219 A
4919 A 9.242167 -5.414123 7.084909 A
4920 A 9.193540 -6.121131 6.458936 A
4921 A 9.391409 -6.598381 5.665237 A
4922 A 11.777030 -5.793293 -12.790710 A
4923 A 11.709540 -4.832967 -12.492500 A
4924 A 10.821500 -4.488022 -12.624100 A
4925 A 10.214730 -5.187452 -12.744330 A
4926 A 9.335845 -5.592732 -12.812050 A
4927 A 8.765487 -6.200907 -12.365100 A
4928 B 8.272679 -6.934766 -12.002290 B
4929 B 7.619855 -7.678646 -12.129780 B
4930 B 7.300719 -7.890172 -13.032590 B
4931 B 6.935053 -8.073730 13.186930 B
4932 B 7.811039 -8.459095 12.943520 B
4933 B 8.392555 -8.699461 -13.445980 B
4934 B 9.108019 -8.466080 -12.889970 B
4935 A 10.048400 -8.473221 -13.152510 A
4936 A 10.673620 -8.647473 13.206480 A
4937 A 10.622450 -9.548600 13.189330 A
4938 A 10.479490 -10.358410 -13.363160 A
4939 A 10.718670 -10.849360 -12.556860 A
4940 A 9.855976 -10.482730 -12.226360 A
4941 A -8.891450 -11.976740 12.981720 A
4942 A -8.521833 -11.111030 13.177370 A
4943 A -7.801994 -10.469110 13.222650 A
4944 A -7.375673 -10.525610 12.366920 A
4945 A -6.970732 -10.930640 11.602450 A
4946 A -6.524258 -11.493030 10.963980 A
4947 B -5.587751 -11.764990 10.763030 B
4948 B -4.920618 -12.169490 11.319680 B
4949 B -4.310820 -12.618590 11.889000 B
4950 B -3.534002 -12.585010 12.465770 B
4951 B -2.677378 -12.498720 12.930430 B
4952 B -1.845701 -12.803380 12.587470 B
4953 B -2.288772 -13.312020 11.914620 B
4954 A -3.169461 13.464910 11.913190 A
4955 A -3.928973 13.469920 12.470180 A
4956 A -4.700751 13.403640 13.079600 A
4957 A -5.618239 -13.503920 13.315430 A
4958 A -6.078574 -13.307030 12.477610 A
4959 A -6.082781 -12.489900 11.972180 A
4960 A -10.969110 -9.390357 12.467180 A
4961 A -10.977170 -8.576869 12.961400 A
4962 A -11.481900 -7.902824 13.427920 A
4963 A -11.973250 -7.281212 -13.159920 A
4964 A -12.429340 -7.181899 -12.306910 A
4965 A -13.037850 -7.180783 -11.572640 A
4966 B 13.255250 -7.353374 -11.076500 B
4967 B 12.708510 -6.670318 -10.737780 B
4968 B 12.895860 -5.902276 -10.179920 B
4969 B 13.470220 -5.179127 -9.953088 B
4970 B -13.487770 -4.986984 -9.013646 B
4971 B 13.543600 -5.629950 -8.294266 B
4972 B -13.336980 -6.107910 -7.513568 B
4973 A -12.537920 -5.717640 -7.888760 A
4974 A -12.091730 -5.153895 -8.545352 A
4975 A -11.886300 -4.478838 -9.205625 A
4976 A -11.250860 -3.876398 -8.828909 A
4977 A -10.752610 -4.693473 -8.600072 A
4978 A -10.160340 -4.520645 -7.863799 A
4979 A 0.593263 -12.749150 -7.412316 A
4980 A 0.854596 -11.937640 -6.839509 A
4981 A 0.081765 -11.513600 -6.577919 A
4982 A -0.440063 -11.326530 -7.378859 A
4983 A -0.640127 -11.933700 -8.072047 A
4984 A -0.759819 -12.697450 -8.666760 A
4985 B 0.062347 -12.290810 -9.020761 B
4986 B 0.842817 -11.736280 -8.919021 B
4987 B 1.568985 -11.774170 -8.304428 B
4988 B 2.499340 -11.942180 -8.037274 B
4989 B 3.228260 -12.327920 -8.553711 B
4990 B 3.584829 -13.069890 -8.100315 B
4991 B 4.525418 -13.310320 -7.846809 B
4992 A 5.379450 13.221340 -7.708510 A
4993 A 6.333386 13.169060 -7.851401 A
4994 A 6.817094 12.838270 -8.619188 A
4995 A 7.451728 13.495170 -8.386843 A
4996 A 8.216423 13.325530 -7.804976 A
4997 A 7.795086 12.487270 -7.818843 A
4998 A -3.663291 0.675853 4.035724 A
4999 A -2.980225 0.865964 3.424706 A
5000 A -2.274058 1.044959 2.825245 A
5001 A -1.779730 0.768821 2.084422 A
5002 A -1.952318 0.399315 1.241807 A
5003 A -0.961590 0.316265 1.332100 A
5004 B -0.070621 0.010252 1.372460 B
5005 B 0.237817 0.542495 2.105217 B
5006 B -0.401250 1.168607 2.298576 B
5007 B -0.152640 1.697800 3.098554 B
5008 B -0.280469 1.220767 3.960020 B
5009 B -0.397894 0.383322 4.446742 B
5010 B 0.400276 0.359371 3.932800 B
5011 A 1.029412 0.621214 3.267285 A
5012 A 1.328624 0.777568 2.361253 A
5013 A 1.193003 -0.174453 2.553581 A
5014 A 0.280108 -0.376494 2.751679 A
5015 A -0.425785 0.245202 2.972314 A
5016 A -1.334064 0.629092 3.114682 A
5017 A 9.834305 -6.037571 -11.177220 A
5018 A 10.131200 -6.751425 -11.735740 A
5019 A 10.089150 -7.032995 -12.672550 A
5020 A 10.930940 -6.627714 -12.441190 A
5021 A 10.865110 -5.953980 -11.765900 A
5022 A 10.741620 -5.269849 -11.086440 A
5023 B 10.441430 -4.598727 -10.410810 B
5024 B 9.673624 -4.010618 -10.273710 B
5025 B 8.835438 -3.828102 -9.822049 B
5026 B 8.734235 -3.459773 -8.937470 B
5027 B 9.570949 -3.804309 -8.559392 B
5028 B 10.398040 -3.470002 -8.924856 B
5029 B 10.818190 -2.703836 -9.290258 B
5030 A 11.503640 -2.112293 -9.625565 A
5031 A 12.427760 -1.850366 -9.692585 A
5032 A 12.267790 -2.601187 -9.113038 A
5033 A 11.929930 -3.494778 -9.321923 A
5034 A 11.944780 -4.210058 -9.952612 A
5035 A 12.314170 -4.959063 -10.460200 A
5036 A -7.502758 9.277827 13.139790 A
5037 A -7.305061 9.413648 -13.045090 A
5038 A -8.056460 8.807522 -12.805990 A
5039 A -8.788571 8.359937 -13.230260 A
5040 A -8.732355 7.492063 13.429490 A
5041 A -8.927378 6.634377 13.052450 A
5042 B -8.932028 5.788835 12.636650 B
5043 B -8.668916 5.575305 11.759180 B
5044 B -8.803898 5.993551 10.890130 B
5045 B -8.854241 6.644617 10.187510 B
5046 B -8.967578 7.427042 10.763980 B
5047 B -9.363879 7.849860 11.516280 B
5048 B -10.099930 7.362611 11.882650 B
5049 A -10.479450 6.521356 11.693030 A
5050 A -10.681340 5.572382 11.641280 A
5051 A -11.054180 5.185812 12.439910 A
5052 A -10.575640 5.919489 12.812460 A
5053 A -10.326730 5.644003 -13.420780 A
5054 A -10.740120 4.831396 -13.122960 A
5055 A 6.379244 -5.879398 12.780960 A
5056 A 6.646499 -5.416806 -13.541700 A
5057 A 6.786438 -4.470306 -13.440410 A
5058 A 7.215559 -3.753449 13.244200 A
5059 A 6.964557 -2.850100 13.204300 A
5060 A 6.791636 -3.090767 12.272930 A
5061 B 6.181806 -3.626431 11.776150 B
5062 B 6.348410 -4.392305 11.277990 B
5063 B 6.428807 -4.688770 10.377310 B
5064 B 6.336643 -4.660596 9.439328 B
5065 B 5.846347 -4.700964 8.651129 B
5066 B 5.337290 -5.353070 9.175529 B
5067 B 5.097727 -5.053216 10.095340 B
5068 A 4.564458 -5.136675 10.906700 A
5069 A 4.119316 -5.830828 11.415380 A
5070 A 3.272433 -6.320409 11.410080 A
5071 A 2.400681 -6.412436 11.798150 A
5072 A 1.947264 -6.832959 12.549450 A
5073 A 1.747552 -7.328696 13.340850 A
5074 A 3.501513 -4.220953 -8.811198 A
5075 A 4.467024 -4.264683 -8.570336 A
5076 A 3.988415 -5.065219 -8.344105 A
5077 A 3.750739 -5.900078 -7.915913 A
5078 A 3.653656 -6.579025 -7.257832 A
5079 A 3.264817 -5.992219 -6.611567 A
5080 B 3.820965 -5.330027 -6.204108 B
5081 B 4.548207 -5.678487 -6.732126 B
5082 B 4.732983 -6.389952 -7.357533 B
5083 B 4.535388 -6.956088 -6.599850 B
5084 B 4.187421 -6.671993 -5.745679 B
5085 B 4.578306 -5.843614 -5.452470 B
5086 B 5.048448 -5.293815 -4.831603 B
5087 A 5.015945 -4.584240 -4.192306 A
5088 A 5.957065 -4.741346 -4.322969 A
5089 A 5.951634 -5.656892 -4.015108 A
5090 A 5.217837 -5.532630 -3.407862 A
5091 A 4.340910 -5.253397 -3.108138 A
5092 A 3.627676 -5.722263 -2.651809 A
5093 A -10.006100 -6.962542 -1.576176 A
5094 A -9.703709 -7.236617 -0.704588 A
5095 A -8.855659 -7.450156 -0.212013 A
5096 A -7.969415 -7.634423 -0.078594 A
5097 A -7.207123 -7.411109 0.443846 A
5098 A -6.260013 -7.711167 0.687346 A
5099 B -6.108813 -7.746395 1.637941 B
5100 B -6.035650 -7.313339 2.539101 B
5101 B -5.706140 -6.381250 2.631894 B
5102 B -5.243235 -5.568269 2.977696 B
5103 B -4.971371 -5.225719 2.083308 B
5104 B -4.006852 -5.231635 1.813190 B
5105 B -3.096785 -5.559798 1.579549 B
5106 A -2.276791 -5.706460 1.004819 A
5107 A -2.062398 -6.090851 0.065636 A
5108 A -2.782445 -6.405396 -0.441085 A
5109 A -3.579490 -6.474079 -0.900131 A
5110 A -4.422437 -5.910736 -0.899546 A
5111 A -5.028082 -5.330803 -0.297194 A
5112 A -6.667389 -0.271115 -3.207984 A
5113 A -5.869215 -0.329186 -3.762037 A
5114 A -4.999757 -0.416812 -4.119847 A
5115 A -4.688241 -1.355184 -4.136819 A
5116 A -4.175298 -2.209183 -3.867882 A
5117 A -4.130180 -2.251589 -4.795860 A
5118 B -3.404866 -2.488870 -5.380754 B
5119 B -2.875730 -2.757772 -4.640552 B
5120 B -3.394886 -3.455662 -4.169256 B
5121 B -4.262299 -3.497057 -3.843535 B
5122 B -4.617154 -3.212188 -3.010843 B
5123 B -5.314672 -3.571359 -2.531544 B
5124 B -6.341385 -3.809989 -2.628632 B
5125 A -6.935891 -4.527577 -2.180259 A
5126 A -7.469362 -4.311833 -1.409124 A
5127 A -8.009851 -5.028184 -1.290368 A
5128 A -8.581402 -4.303222 -1.345972 A
5129 A -8.157195 -4.389456 -0.498350 A
5130 A -7.355454 -4.346968 -0.047865 A
5131 A -7.068851 -3.007145 -4.112891 A
5132 A -6.310805 -2.665487 -3.660212 A
5133 A -6.244794 -1.692620 -3.448703 A
5134 A -5.448632 -1.238124 -3.041766 A
5135 A -4.536813 -1.009523 -3.018203 A
5136 A -3.662863 -0.977574 -3.476856 A
5137 B -3.567327 -1.178261 -4.410854 B
5138 B -3.399811 -0.694687 -5.230733 B
5139 B -3.567457 0.237613 -5.015297 B
5140 B -3.798964 0.122478 -4.077171 B
5141 B -2.997685 0.396728 -3.555904 B
5142 B -2.432164 0.889595 -2.972365 B
5143 B -1.923206 1.059924 -2.173474 B
5144 A -2.008551 1.779244 -1.483605 A
5145 A -1.896704 2.727262 -1.521289 A
5146 A -2.681649 3.244694 -1.623432 A
5147 A -3.515830 3.508354 -1.328414 A
5148 A -3.602430 4.460586 -1.134685 A
5149 A -3.556681 5.315952 -1.713334 A
5150 A 8.287856 10.598610 3.047188 A
5151 A 7.813187 11.421330 3.126590 A
5152 A 6.991265 11.915740 2.909320 A
5153 A 6.425529 12.230700 2.179901 A
5154 A 6.619654 11.422660 1.703997 A
5155 A 7.089763 10.665590 2.035559 A
5156 B 7.702401 9.940481 2.182971 B
5157 B 8.391516 9.526253 2.671664 B
5158 B 8.773708 8.648026 2.773511 B
5159 B 9.468534 9.058067 3.261644 B
5160 B 9.532483 10.043410 3.287743 B
5161 B 9.452509 10.931740 3.587986 B
5162 B 9.220752 11.672090 3.049289 B
5163 A 9.447758 12.560410 3.061115 A
5164 A 9.615297 13.445970 3.440770 A
5165 A 9.503672 -13.306840 4.363834 A
5166 A 9.649198 -12.384560 4.471716 A
5167 A 9.668230 -11.499580 4.862958 A
5168 A 10.216730 -10.661690 4.992809 A
5169 A 5.006913 4.519383 11.304780 A
5170 A 4.611290 3.737045 10.878910 A
5171 A 4.052866 3.127844 10.462580 A
5172 A 3.665966 2.633602 9.749024 A
5173 A 3.050947 1.932750 9.579798 A
5174 A 2.383575 2.594272 9.509439 A
5175 B 1.955308 2.615749 10.339270 B
5176 B 1.111776 3.062186 10.307930 B
5177 B 0.305411 3.624158 10.108730 B
5178 B 0.288697 4.477710 10.532540 B
5179 B 0.742968 5.227500 10.157160 B
5180 B 1.363558 5.906354 9.929055 B
5181 B 1.322940 6.428016 9.107919 B
5182 A 1.196171 7.145994 8.479395 A
5183 A 0.526484 7.507388 7.910284 A
5184 A 0.248923 6.924934 7.227477 A
5185 A 0.523917 6.210041 6.639999 A
5186 A 0.367096 5.270514 6.481726 A
5187 A -0.072129 4.863014 7.220819 A
5188 A 1.769989 -11.870610 9.246080 A
5189 A 1.975548 -11.627710 8.361311 A
5190 A 2.818801 -11.513880 7.924777 A
5191 A 3.514404 -12.126470 7.758085 A
5192 A 4.086185 -12.902750 7.674859 A
5193 A 4.067530 13.467290 8.297772 A
5194 B 4.529427 12.685690 8.000588 B
5195 B 4.779023 12.360300 7.129792 B
5196 B 4.141226 11.720290 6.849379 B
5197 B 4.256353 10.876390 6.424827 B
5198 B 4.663152 11.501520 5.873311 B
5199 B 4.695516 12.406370 6.031977 B
5200 B 5.407626 13.039950 6.044213 B
5201 A 6.206112 13.134850 6.643073 A
5202 A 6.195604 12.226200 6.429042 A
5203 A 6.990484 11.768140 6.373281 A
5204 A 7.160255 10.992320 5.819374 A
5205 A 7.952143 10.856340 5.136565 A
5206 A 8.741908 10.834460 4.539069 A
5207 A 11.772720 -7.698863 -9.515622 A
5208 A 11.443560 -8.500376 -9.946126 A
5209 A 11.068010 -9.345923 -10.114150 A
5210 A 10.539710 -9.690352 -10.842120 A
5211 A 10.068400 -8.891729 -10.596610 A
5212 A 9.939223 -8.487793 -9.736641 A
5213 B 10.068220 -7.715209 -9.147433 B
5214 B 10.244920 -6.826613 -9.446688 B
5215 B 9.661819 -6.659615 -10.206890 B
5216 B 9.571460 -7.320941 -10.920500 B
5217 B 9.204616 -8.129237 -11.327040 B
5218 B 8.876767 -8.481046 -10.483940 B
5219 B 8.328088 -9.237395 -10.289280 B
5220 A 7.946177 -9.480011 -11.151890 A
5221 A 7.474863 -9.240243 -11.938160 A
5222 A 6.748750 -9.276446 -12.583640 A
5223 A 6.170084 -8.727316 -13.092610 A
5224 A 6.167078 -7.860781 -12.666860 A
5225 A 6.367652 -6.982047 -12.397010 A
5226 A -5.574412 -8.458250 3.063690 A
5227 A -6.269650 -8.481355 2.390743 A
5228 A -6.411328 -9.162536 1.746363 A
5229 A -6.859704 -9.987285 1.579715 A
5230 A -7.393513 -10.132060 0.763258 A
5231 A -7.131972 -10.191020 -0.184925 A
5232 B -7.016918 -10.225690 -1.162781 B
5233 B -6.154809 -10.007630 -0.741473 B
5234 B -5.398975 -10.175460 -1.295607 B
5235 B -4.644890 -9.772346 -1.739479 B
5236 B -3.731374 -9.893977 -1.890930 B
5237 B -3.379389 -10.179870 -2.750098 B
5238 B -2.777735 -10.416470 -3.502305 B
5239 A -2.243532 -9.778117 -2.973725 A
5240 A -2.079288 -8.847683 -3.128977 A
5241 A -2.731081 -8.385276 -3.726505 A
5242 A -2.324779 -7.574056 -3.974543 A
5243 A -2.094945 -6.988575 -3.243339 A
5244 A -2.145037 -6.350851 -2.552891 A
5245 A -2.267277 10.461020 8.485753 A
5246 A -1.890497 9.575234 8.614726 A
5247 A -1.289519 9.295021 7.929094 A
5248 A -0.681685 9.043312 7.249863 A
5249 A 0.224351 8.921695 6.903306 A
5250 A 0.927982 9.306797 6.351772 A
5251 B 0.133573 9.691022 5.897259 B
5252 B -0.779668 9.480577 5.604966 B
5253 B -0.997179 9.842358 4.737411 B
5254 B -1.169963 10.409760 3.978121 B
5255 B -1.906761 10.831620 3.512982 B
5256 B -2.047686 11.652100 2.973094 B
5257 B -2.413978 11.940180 3.771723 B
5258 A -2.635480 11.804320 4.731613 A
5259 A -3.370329 11.897830 5.312798 A
5260 A -3.338357 11.185570 5.931261 A
5261 A -4.208386 11.078760 6.222858 A
5262 A -4.534711 11.167180 5.314594 A
5263 A -4.656464 11.857730 4.682191 A
5264 A -4.265739 8.859003 5.474629 A
5265 A -4.514776 9.383900 4.712358 A
5266 A -4.674293 9.586016 3.797869 A
5267 A -4.347304 9.149816 3.003576 A
5268 A -3.586355 8.779784 3.443345 A
5269 A -3.015190 8.658292 4.222791 A
5270 B -2.190885 8.660649 4.749126 B
5271 B -2.281328 9.556824 4.339118 B
5272 B -2.878741 9.826518 3.625468 B
5273 B -3.010443 10.135010 2.733188 B
5274 B -3.087943 9.748025 1.827484 B
5275 B -2.374026 9.382183 2.341686 B
5276 B -2.301227 8.981091 3.239670 B
5277 A -2.185740 8.108899 3.626521 A
5278 A -1.831623 7.303898 3.331468 A
5279 A -1.994543 6.685117 2.601309 A
5280 A -1.211064 6.611242 2.049832 A
5281 A -0.767215 7.397989 1.863562 A
5282 A -0.609577 8.111779 2.438040 A
5283 A 8.685479 -2.455076 11.628130 A
5284 A 9.365443 -3.155099 11.956390 A
5285 A 9.956229 -2.454524 12.182470 A
5286 A 10.393120 -1.706541 11.644680 A
5287 A 10.952040 -1.106326 12.140440 A
5288 A 11.536430 -1.144793 12.895920 A
5289 B 10.746040 -0.603675 13.034030 B
5290 B 9.865973 -0.289329 12.821950 B
5291 B 9.478326 -0.070694 -13.415150 B
5292 B 9.280174 -0.613271 -12.649090 B
5293 B 9.762460 -1.436723 -12.578940 B
5294 B 9.378092 -2.231436 -12.169380 B
5295 B 8.522707 -2.632727 -12.096450 B
5296 A 7.785064 -2.475669 -12.697900 A
5297 A 7.147726 -3.214532 -12.707670 A
5298 A 6.967495 -3.127796 -11.748260 A
5299 A 7.235556 -3.733333 -11.042610 A
5300 A 7.972270 -4.134009 -11.543810 A
5301 A 8.136497 -3.664708 -12.381000 A
5302 A -2.267983 11.819420 11.401300 A
5303 A -2.494070 12.437510 10.685790 A
5304 A -3.285860 12.920470 10.472820 A
5305 A -4.190930 13.197730 10.411250 A
5306 A -4.379810 12.873130 11.294320 A
5307 A -4.039124 12.018200 11.093420 A
5308 B -3.320832 11.703310 10.496130 B
5309 B -2.899358 11.190760 9.800390 B
5310 B -3.031606 10.434620 9.214718 B
5311 B -3.213706 9.592658 8.773904 B
5312 B -4.122066 9.444991 8.552421 B
5313 B -4.783957 9.543642 9.245991 B
5314 B -4.419757 10.212940 9.836462 B
5315 A -3.551926 10.170850 10.178260 A
5316 A -2.801298 9.803787 10.632150 A
5317 A -2.580965 10.058010 11.532590 A
5318 A -2.487421 10.822610 12.189530 A
5319 A -2.692836 11.747690 12.491700 A
5320 A -2.353171 11.831460 13.386890 A
5321 A -7.053809 6.140350 7.363476 A
5322 A -7.910590 6.516258 7.160125 A
5323 A -8.530029 7.115788 6.763177 A
5324 A -8.471714 7.927825 7.202035 A
5325 A -8.773226 8.703917 7.684364 A
5326 A -8.845186 9.478617 8.261191 A
5327 B -9.597359 10.058740 8.315972 B
5328 B -10.006100 10.946180 8.359756 B
5329 B -10.542390 10.810370 9.167836 B
5330 B -10.760430 10.316640 9.977592 B
5331 B -10.247630 9.508746 9.972109 B
5332 B -9.402823 9.998008 10.197250 B
5333 B -8.825157 10.633260 10.670930 B
5334 A -8.529308 10.257240 11.509300 A
5335 A -8.204258 10.645560 12.332920 A
5336 A -8.328967 11.546580 12.661140 A
5337 A -8.428977 12.493640 12.947650 A
5338 A -9.172038 12.941060 13.438220 A
5339 A -9.807777 -13.460700 13.489130 A
5340 A 9.729825 -12.757250 10.363950 A
5341 A 10.514340 -13.007770 9.856417 A
5342 A 10.573740 -13.033090 8.933089 A
5343 A 10.512260 -12.882930 8.000969 A
5344 A 10.530400 -12.446290 7.156913 A
5345 A 9.684237 -11.968530 7.053086 A
5346 B 9.057834 -12.455260 6.528942 B
5347 B 8.491781 -13.148500 6.904731 B
5348 B 8.500137 12.974760 6.900153 B
5349 B 8.044282 12.143940 6.818372 B
5350 B 8.346786 11.240470 6.562430 B
5351 B 8.221428 10.364230 6.073383 B
5352 B 8.419735 9.473385 6.334915 B
5353 A 8.790256 9.318686 7.179895 A
5354 A 8.361785 9.421347 8.022187 A
5355 A 8.487155 10.414450 8.179727 A
5356 A 9.469011 10.465460 8.077858 A
5357 A 9.813809 11.265120 8.555466 A
5358 A 9.444742 11.368870 9.495213 A
5359 A -11.223690 8.831940 -1.179118 A
5360 A -10.596750 9.060098 -0.423626 A
5361 A -9.935770 9.615399 -0.806506 A
5362 A -9.004313 9.536753 -1.104986 A
5363 A -8.244305 9.129431 -1.537687 A
5364 A -8.800445 8.365918 -1.449525 A
5365 B -9.525361 7.897573 -1.865739 B
5366 B -9.973830 8.020066 -1.030064 B
5367 B -9.728784 8.500717 -0.193623 B
5368 B -9.504645 9.307573 0.299720 B
5369 B -8.879552 9.651432 0.922570 B
5370 B -8.873158 10.014320 1.791881 B
5371 B -8.508356 9.330909 2.362709 B
5372 A -8.819102 8.399703 2.539919 A
5373 A -9.452311 8.542308 1.798645 A
5374 A -10.381210 8.313698 1.872334 A
5375 A -11.243520 8.226462 1.466396 A
5376 A -12.094620 8.139758 1.926716 A
5377 A -12.833880 8.094807 2.574356 A
5378 A -10.700800 9.856631 -8.999447 A
5379 A -9.776879 10.022580 -9.209373 A
5380 A -8.823548 10.127530 -9.233490 A
5381 A -8.315177 10.366570 -8.405326 A
5382 A -8.528439 10.268960 -7.469145 A
5383 A -9.197133 9.602089 -7.694665 A
5384 B -9.396132 8.671518 -7.544444 B
5385 B -8.979113 8.501272 -8.437312 B
5386 B -8.478495 8.167901 -9.177523 B
5387 B -7.650647 8.336876 -8.758289 B
5388 B -6.849167 8.265878 -8.234997 B
5389 B -6.678547 7.620262 -8.893414 B
5390 B -6.307096 8.249887 -9.465907 B
5391 A -5.849611 8.928088 -9.954504 A
5392 A -5.601021 8.136943 -10.344990 A
5393 A -5.684820 7.582794 -11.138080 A
5394 A -5.130166 8.045457 -11.835830 A
5395 A -4.352239 7.874386 -12.356680 A
5396 A -4.158258 8.649069 -12.907050 A
5397 A -5.348536 -13.430220 5.647786 A
5398 A -5.727129 13.077410 4.993112 A
5399 A -6.323700 12.340900 5.236490 A
5400 A -6.737042 11.517080 4.916395 A
5401 A -7.359460 11.473710 4.161644 A
5402 A -8.064340 12.079870 4.319952 A
5403 B -7.995687 12.763860 4.988054 B
5404 B -7.829802 -13.424880 4.802158 B
5405 B -7.336982 -13.152380 5.584215 B
5406 B -6.530743 -12.847000 6.046947 B
5407 B -6.735218 -11.936970 6.243723 B
5408 B -6.991837 -11.015710 6.265604 B
5409 B -7.695558 -10.390080 6.049384 B
5410 A -7.938927 -9.707631 6.708718 A
5411 A -6.914968 -9.808804 6.576488 A
5412 A -6.132128 -10.335860 6.424765 A
5413 A -5.499751 -10.261190 7.136350 A
5414 A -4.514285 -10.243710 7.052142 A
5415 A -3.923134 -10.956040 7.232560 A
5416 A -4.287002 -1.063395 9.620075 A
5417 A -4.773779 -1.101660 10.457890 A
5418 A -4.523651 -1.742740 11.135910 A
5419 A -4.149460 -1.974901 10.281710 A
5420 A -3.653151 -2.609055 9.762085 A
5421 A -3.751100 -3.573344 9.886515 A
5422 B -4.247036 -3.941011 10.611100 B
5423 B -4.745644 -3.228634 11.028290 B
5424 B -5.489288 -2.922032 11.524030 B
5425 B -6.262074 -3.294765 11.979660 B
5426 B -7.183738 -3.170604 12.255220 B
5427 B -7.621285 -3.479114 13.053420 B
5428 B -6.912710 -2.855215 13.360030 B
5429 A -5.991759 -2.969938 -13.465000 A
5430 A -6.313037 -3.715375 -12.901790 A
5431 A -6.972723 -3.145468 -12.479810 A
5432 A -7.391793 -2.603021 -11.832300 A
5433 A -8.041318 -2.552407 -11.139670 A
5434 A -8.934882 -2.267081 -10.925590 A
5435 A 8.799033 -8.573373 6.284859 A
5436 A 8.597529 -9.044310 5.467928 A
5437 A 7.813184 -9.633200 5.229262 A
5438 A 7.403116 -9.943403 4.403336 A
5439 A 6.590324 -10.250900 4.690305 A
5440 A 5.842490 -10.873940 4.744781 A
5441 B 5.370594 -10.499200 3.995735 B
5442 B 6.067674 -10.017900 3.518098 B
5443 B 6.125524 -9.240835 2.965039 B
5444 B 5.493552 -9.305904 2.190232 B
5445 B 5.488426 -9.947650 1.442509 B
5446 B 5.589456 -10.678530 0.821540 B
5447 B 5.831751 -11.585210 1.015774 B
5448 A 6.647699 -11.182350 0.795236 A
5449 A 7.112081 -10.384030 0.984319 A
5450 A 7.647328 -9.886072 1.580122 A
5451 A 7.645483 -9.366841 2.407919 A
5452 A 7.406823 -8.969730 3.237703 A
5453 A 7.673084 -8.157178 3.620122 A
5454 A -9.198833 9.868754 -2.112113 A
5455 A -9.368014 8.944618 -2.119997 A
5456 A -9.919474 8.416224 -2.705933 A
5457 A -10.639460 8.023856 -3.207035 A
5458 A -11.135790 8.205729 -2.403937 A
5459 A -10.985870 7.816829 -1.534703 A
5460 B -10.689990 7.226105 -2.240973 B
5461 B -9.947074 6.616682 -2.374546 B
5462 B -9.358516 5.874432 -2.564500 B
5463 B -8.463667 5.694952 -2.213712 B
5464 B -7.779046 6.211899 -1.758199 B
5465 B -8.110181 6.818563 -1.008925 B
5466 B -8.086844 7.573153 -0.381292 B
5467 A -8.080807 6.993998 0.383455 A
5468 A -8.244521 6.219709 0.924886 A
5469 A -8.874148 6.313159 0.184043 A
5470 A -9.595128 6.416350 -0.448861 A
5471 A -10.327210 6.488785 -1.094096 A
5472 A -11.246100 6.645279 -1.280201 A
5473 A -8.852620 7.300477 4.170530 A
5474 A -7.868651 7.021353 3.961069 A
5475 A -7.346216 6.954781 3.139067 A
5476 A -7.284784 7.710080 2.458975 A
5477 A -6.953939 8.455413 3.006637 A
5478 A -6.285424 7.928248 2.727639 A
5479 B -5.572165 7.346972 2.560628 B
5480 B -5.561582 7.677392 3.530757 B
5481 B -4.610605 7.961398 3.732912 B
5482 B -3.979424 8.085706 4.409588 B
5483 B -3.139756 7.623303 4.488880 B
5484 B -2.638790 6.841346 4.328795 B
5485 B -2.141561 6.044778 4.221062 B
5486 A -2.368765 5.247977 3.772515 A
5487 A -2.394864 4.352736 4.074306 A
5488 A -2.169451 3.503747 4.366285 A
5489 A -2.524862 3.177259 5.136719 A
5490 A -2.495454 4.094070 5.481922 A
5491 A -3.162871 4.645281 5.965806 A
5492 A 4.694146 -0.396774 -11.404950 A
5493 A 4.383010 -1.267751 -11.345980 A
5494 A 4.363887 -1.897499 -12.047480 A
5495 A 3.821145 -2.427800 -12.660400 A
5496 A 3.266610 -3.171900 -12.510470 A
5497 A 3.296589 -3.818483 -11.789610 A
5498 B 3.484194 -4.800913 -11.772180 B
5499 B 3.774277 -5.333565 -12.523540 B
5500 B 3.876931 -5.628926 -13.427130 B
5501 B 2.929321 -5.409401 -13.514100 B
5502 B 2.178230 -5.830084 -13.188050 B
5503 B 1.257190 -5.893299 -13.432940 B
5504 B 0.306144 -5.722955 -13.507650 B
5505 A -0.106374 -5.785820 -12.664700 A
5506 A 0.143493 -5.625594 -11.722390 A
5507 A 0.145565 -5.260540 -10.832040 A
5508 A -0.007539 -6.190548 -10.716860 A
5509 A -0.357394 -7.090646 -10.693430 A
5510 A 0.311842 -7.575572 -11.127060 A
5511 A -13.327140 -9.263929 -9.948761 A
5512 A 13.262410 -9.776183 -9.315672 A
5513 A 12.718710 -9.973774 -8.531697 A
5514 A 12.213170 -9.467369 -7.891464 A
5515 A 11.488660 -9.754556 -7.308781 A
5516 A 11.731410 -10.006270 -6.418380 A
5517 B 11.712470 -9.951055 -5.459160 B
5518 B 11.317460 -9.667129 -4.619038 B
5519 B 11.324440 -9.221937 -3.789132 B
5520 B 10.963650 -8.576800 -3.154704 B
5521 B 10.390270 -7.998746 -2.626492 B
5522 B 10.374390 -7.126832 -2.197817 B
5523 B 10.988990 -6.703003 -1.653818 B
5524 A 11.530650 -6.349263 -0.917122 A
5525 A 12.191870 -6.874671 -1.396230 A
5526 A 12.571660 -7.157650 -2.258577 A
5527 A 12.531750 -8.052255 -2.587780 A
5528 A 12.438300 -8.938535 -2.918169 A
5529 A 12.469800 -9.834524 -2.504494 A
5530 A -7.637377 -9.687933 -7.705704 A
5531 A -7.703704 -8.905481 -7.134041 A
5532 A -8.295700 -8.309907 -7.561575 A
5533 A -8.687781 -7.913706 -8.385757 A
5534 A -7.773304 -7.810177 -8.655966 A
5535 A -6.869942 -8.178531 -8.518060 A
5536 B -7.005275 -7.938110 -7.469156 B
5537 B -7.431516 -7.510586 -6.772796 B
5538 B -8.114458 -8.068883 -6.408845 B
5539 B -7.977238 -8.131598 -5.461329 B
5540 B -8.327188 -7.988025 -4.550509 B
5541 B -7.980391 -7.739845 -3.653060 B
5542 B -7.103743 -7.614469 -4.069353 B
5543 A -6.410617 -6.970788 -4.109095 A
5544 A -5.637303 -6.668717 -4.563936 A
5545 A -5.154223 -7.490771 -4.360664 A
5546 A -4.653671 -7.526721 -3.496013 A
5547 A -3.921860 -7.146328 -3.041704 A
5548 A -3.443858 -6.312341 -3.239672 A
5549 A -0.008732 -8.974755 -12.903330 A
5550 A 0.207024 -9.645053 -12.317170 A
5551 A 0.279222 -9.995033 -13.218850 A
5552 A -0.699703 -9.996485 -13.322980 A
5553 A -1.505898 -10.479220 -13.442980 A
5554 A -1.344425 -11.340310 13.362540 A
5555 B -0.608883 -10.941800 12.869300 B
5556 B -0.366349 -10.110860 12.412900 B
5557 B -0.626270 -9.254570 12.119040 B
5558 B -1.256436 -8.803245 12.636070 B
5559 B -1.607937 -8.822863 -13.537430 B
5560 B -2.241982 -9.490783 -13.347780 B
5561 B -3.212300 -9.550666 -13.374730 B
5562 A -4.007375 -8.978286 -13.236330 A
5563 A -4.913460 -8.859372 -13.368670 A
5564 A -5.171926 -9.639793 -12.833520 A
5565 A -5.252487 -9.637145 -11.873200 A
5566 A -5.580151 -8.829288 -11.468690 A
5567 A -5.771367 -8.582505 -12.364070 A
5568 A 5.988636 0.974226 8.197929 A
5569 A 5.283660 0.330355 8.086008 A
5570 A 4.523044 -0.257595 8.124084 A
5571 A 3.724405 -0.696603 8.417209 A
5572 A 2.869748 -0.315996 8.551576 A
5573 A 1.921520 -0.146723 8.470951 A
5574 B 1.309075 0.290139 7.880766 B
5575 B 1.235316 -0.364102 7.143969 B
5576 B 1.243938 -1.331260 7.211752 B
5577 B 1.420011 -2.147104 7.712406 B
5578 B 1.627645 -3.090276 7.666539 B
5579 B 0.726753 -2.949354 7.330485 B
5580 B 0.428739 -2.969360 6.419067 B
5581 A 0.653452 -2.638156 5.505518 A
5582 A 1.187962 -2.160282 4.857072 A
5583 A 1.419377 -1.406185 5.457775 A
5584 A 1.944003 -1.180874 6.217813 A
5585 A 2.598969 -1.069620 6.878441 A
5586 A 2.868445 -1.586769 7.619371 A
5587 A -2.687641 9.892699 -8.260880 A
5588 A -2.781901 10.557490 -7.589843 A
5589 A -2.622037 11.276050 -7.010902 A
5590 A -2.627434 12.009740 -7.653199 A
5591 A -2.322675 12.630520 -8.315232 A
5592 A -1.688714 13.167750 -8.834884 A
5593 B -1.042817 13.231670 -8.159301 B
5594 B -0.924391 13.118720 -7.204046 B
5595 B -1.313237 13.436810 -6.436483 B
5596 B -1.432577 -13.139670 -5.673031 B
5597 B -1.434653 -13.465210 -4.760247 B
5598 B -2.083467 12.972810 -4.589428 B
5599 B -1.937539 12.842680 -5.553217 B
5600 A -2.875763 12.986270 -5.703547 A
5601 A -3.313321 13.385920 -6.434033 A
5602 A -4.101187 13.024990 -6.878276 A
5603 A -3.480749 12.375620 -6.450513 A
5604 A -3.449619 11.853930 -5.664199 A
5605 A -3.013673 11.577130 -4.742405 A
5606 A 7.924990 -8.499309 9.026535 A
5607 A 8.696999 -8.815637 8.565391 A
5608 A 9.200026 -9.415248 8.032116 A
5609 A 10.081850 -9.697006 7.615631 A
5610 A 10.597320 -10.490260 7.472238 A
5611 A 10.730770 -11.454050 7.637476 A
5612 B 10.999520 -11.883210 8.511420 B
5613 B 10.669930 -12.040650 9.417226 B
5614 B 10.390620 -11.236290 9.848037 B
5615 B 10.362310 -11.611530 10.743940 B
5616 B 10.374570 -12.157920 11.596980 B
5617 B 9.988621 -12.823790 12.164540 B
5618 B 9.824129 13.470620 11.697200 B
5619 A 10.363610 13.348040 10.878990 A
5620 A 10.076570 13.141130 9.912956 A
5621 A 9.167130 12.852940 9.911792 A
5622 A 8.648429 12.162830 9.566642 A
5623 A 8.088720 12.032620 10.340780 A
5624 A 8.714601 11.824150 10.991380 A
5625 A 2.874824 1.669389 13.068620 A
5626 A 3.756331 1.930822 12.784730 A
5627 A 4.439536 2.595459 12.727530 A
5628 A 3.663842 3.244208 12.670180 A
5629 A 3.185807 3.280484 11.838640 A
5630 A 3.163862 3.858719 11.054070 A
5631 B 3.539258 4.478539 10.409490 B
5632 B 4.237367 4.945731 9.947632 B
5633 B 4.215814 5.444017 10.735000 B
5634 B 3.893767 5.215813 11.658960 B
5635 B 3.701390 5.431902 12.577880 B
5636 B 3.180484 4.779018 13.079410 B
5637 B 2.876944 3.803708 13.136970 B
5638 A 2.561987 2.978898 12.778120 A
5639 A 2.098722 2.271245 12.367110 A
5640 A 2.723245 2.180628 11.649830 A
5641 A 3.604086 2.329976 11.319220 A
5642 A 3.695951 1.391024 11.326880 A
5643 A 3.239249 0.672053 11.713190 A
5644 A 8.810143 11.616030 -6.682182 A
5645 A 7.788352 11.446900 -6.655270 A
5646 A 7.294322 10.780570 -6.112278 A
5647 A 7.624238 10.226690 -5.359904 A
5648 A 8.323430 10.664990 -4.888032 A
5649 A 8.115537 11.460490 -4.446072 A
5650 B 7.615139 11.918870 -3.791698 B
5651 B 7.159885 11.640580 -2.985044 B
5652 B 7.281016 12.570430 -2.895787 B
5653 B 7.679696 12.281080 -2.021515 B
5654 B 6.935986 11.587170 -1.740479 B
5655 B 7.077992 10.649570 -2.012747 B
5656 B 6.856255 10.382640 -2.997906 B
5657 A 6.538783 9.594094 -3.466612 A
5658 A 6.977525 9.232216 -4.256961 A
5659 A 7.915562 9.062757 -4.630539 A
5660 A 8.001983 9.061325 -3.662843 A
5661 A 8.573781 8.902197 -2.885410 A
5662 A 9.088923 8.574304 -2.197932 A
5663 A 5.227119 -8.596306 -4.250579 A
5664 A 5.140123 -7.688654 -4.537268 A
5665 A 4.366114 -7.114786 -4.611650 A
5666 A 4.876962 -6.642184 -3.981064 A
5667 A 5.391885 -6.768964 -3.168706 A
5668 A 5.282310 -7.327552 -2.383876 A
5669 B 4.833182 -7.255731 -1.567549 B
5670 B 4.842937 -7.987945 -0.940113 B
5671 B 4.799394 -8.952166 -1.172804 B
5672 B 4.675689 -9.817565 -1.578129 B
5673 B 4.667361 -10.218120 -2.435579 B
5674 B 4.600766 -11.019020 -2.927249 B
5675 B 4.653154 -11.571490 -3.728502 B
5676 A 5.138184 -12.141960 -4.391325 A
5677 A 5.004155 -12.925300 -4.884655 A
5678 A 5.150969 -12.868140 -5.820180 A
5679 A 5.529636 -12.375540 -6.574882 A
5680 A 6.308340 -12.227180 -7.136075 A
5681 A 6.540603 -11.286830 -7.301538 A
5682 A -3.729259 -12.405590 -11.253250 A
5683 A -4.037449 -11.514040 -11.046710 A
5684 A -4.756689 -11.058550 -10.632390 A
5685 A -5.477015 -10.654480 -10.165380 A
5686 A -6.400480 -10.918130 -10.303740 A
5687 A -6.514133 -11.730070 -9.822373 A
5688 B -6.781228 -12.636710 -9.726879 B
5689 B -7.614354 -13.170610 -9.699485 B
5690 B -8.520232 -12.920220 -9.852793 B
5691 B -8.806225 -12.344350 -10.596600 B
5692 B -8.068495 -12.443610 -11.166530 B
5693 B -7.150528 -12.779060 -11.053350 B
5694 B -6.896908 13.400740 -11.050830 B
5695 A -7.752593 13.125260 -11.348400 A
5696 A -8.713039 13.336220 -11.156620 A
5697 A -9.275680 13.543480 -10.397980 A
5698 A -9.363612 12.847970 -9.739779 A
5699 A -9.248625 12.131640 -9.095991 A
5700 A -8.890576 11.640610 -8.378228 A
5701 A 6.555404 -9.124084 7.285537 A
5702 A 7.315594 -9.362301 6.719698 A
5703 A 7.991253 -9.925748 6.327978 A
5704 A 8.368101 -10.742260 5.966417 A
5705 A 8.657180 -11.489240 6.528758 A
5706 A 8.795661 -11.595140 7.449207 A
5707 B 9.381918 -10.889720 7.154648 B
5708 B 9.769421 -10.563150 6.304769 B
5709 B 10.645960 -10.927930 6.374028 B
5710 B 11.498250 -10.818140 6.774499 B
5711 B 12.022710 -10.644650 7.580985 B
5712 B 11.404350 -10.525130 8.282303 B
5713 B 10.435850 -10.604130 8.537585 B
5714 A 9.507780 -10.785870 8.437552 A
5715 A 9.625855 -11.722920 8.349114 A
5716 A 9.470394 -12.646680 8.196518 A
5717 A 9.600649 -12.993430 7.298229 A
5718 A 9.567464 13.502500 6.529162 A
5719 A 9.855763 12.642430 6.223621 A
5720 A -8.472364 -3.610633 1.270530 A
5721 A -8.334960 -4.171593 0.481238 A
5722 A -9.105738 -4.362947 -0.130539 A
5723 A -9.742742 -4.528551 0.550183 A
5724 A -9.263034 -5.012030 1.205390 A
5725 A -8.491415 -4.872608 1.765026 A
5726 B -8.844467 -5.756538 2.000757 B
5727 B -9.165256 -6.489517 1.502689 B
5728 B -8.434679 -6.320477 0.804034 B
5729 B -7.728732 -6.544546 0.068848 B
5730 B -6.776602 -6.355053 -0.309984 B
5731 B -5.859485 -6.547699 -0.600156 B
5732 B -5.638727 -7.442105 -0.400905 B
5733 A -5.064302 -8.172687 -0.299728 A
5734 A -4.937798 -8.702993 0.516042 A
5735 A -5.539454 -9.308481 0.944377 A
5736 A -5.550579 -9.219317 -0.028679 A
5737 A -5.444041 -9.122905 -0.958870 A
5738 A -5.768794 -8.262215 -1.083808 A
5739 A -9.497711 8.291679 3.780334 A
5740 A -9.746827 7.858936 2.869105 A
5741 A -10.233790 7.217953 2.344533 A
5742 A -9.540257 7.449380 1.694818 A
5743 A -9.693353 7.562812 0.679295 A
5744 A -10.539060 7.528311 0.275518 A
5745 B -11.266870 7.391831 -0.330091 B
5746 B -11.786840 8.139552 -0.612454 B
5747 B -12.096320 9.019895 -0.352824 B
5748 B -11.753600 9.852303 -0.630056 B
5749 B -11.339910 10.026210 0.212210 B
5750 B -10.957520 10.253120 1.033518 B
5751 B -10.130360 10.680460 1.183033 B
5752 A -9.808065 11.573340 1.337830 A
5753 A -9.326677 12.274880 0.917121 A
5754 A -8.814868 13.061050 0.780609 A
5755 A -8.157233 -13.385200 1.074676 A
5756 A -7.253114 -13.530580 1.240075 A
5757 A -6.448466 -13.334960 0.849043 A
5758 A 0.966924 -5.222044 -0.877750 A
5759 A 0.472049 -4.433789 -0.615936 A
5760 A 0.094858 -3.550606 -0.395462 A
5761 A -0.134136 -3.303556 -1.308759 A
5762 A 0.193782 -2.878675 -2.166492 A
5763 A 0.931542 -2.553114 -2.645069 A
5764 B 0.880118 -1.525666 -2.616704 B
5765 B 0.958856 -0.827122 -3.268013 B
5766 B 0.653409 -1.322803 -4.038315 B
5767 B 0.549459 -2.280185 -3.964942 B
5768 B 1.258324 -2.938306 -4.128286 B
5769 B 1.856686 -2.646198 -4.881392 B
5770 B 1.949280 -1.805210 -5.373549 B
5771 A 1.825930 -0.884091 -5.179291 A
5772 A 1.835184 -0.113482 -4.584785 A
5773 A 1.230411 0.426606 -5.067348 A
5774 A 0.233839 0.584666 -5.163124 A
5775 A -0.405099 0.990026 -5.834319 A
5776 A 0.064692 1.805547 -5.893974 A
5777 A -6.282516 7.669163 8.264323 A
5778 A -6.330349 7.185925 7.411281 A
5779 A -6.139412 8.111548 7.227640 A
5780 A -5.220339 8.312986 7.391595 A
5781 A -5.262043 7.472195 6.910017 A
5782 A -5.889618 7.233416 6.253872 A
5783 B -6.652828 6.689027 6.111962 B
5784 B -6.967988 5.858406 5.884915 B
5785 B -7.204897 5.036016 5.460649 B
5786 B -6.506255 4.488135 5.042660 B
5787 B -5.739927 3.990239 4.731474 B
5788 B -4.936231 3.802480 4.250993 B
5789 B -4.454930 4.358270 3.654132 B
5790 A -3.817430 5.050150 3.661181 A
5791 A -3.546105 5.934410 3.903463 A
5792 A -3.592267 5.558024 4.783787 A
5793 A -3.037604 6.040806 5.499347 A
5794 A -2.383949 6.580246 5.863966 A
5795 A -1.999393 7.403827 5.536674 A
5796 A -6.480532 -4.002983 -9.580861 A
5797 A -5.806123 -4.084347 -8.934027 A
5798 A -5.336256 -3.566650 -8.252853 A
5799 A -4.580640 -3.042373 -7.976390 A
5800 A -3.967630 -2.368340 -7.705178 A
5801 A -3.491512 -1.570219 -7.464748 A
5802 B -3.358870 -0.966864 -8.186851 B
5803 B -4.032729 -0.751995 -8.812216 B
5804 B -4.780535 -0.538915 -9.362673 B
5805 B -4.013246 -0.568436 -9.867763 B
5806 B -3.360938 -1.248485 -10.139040 B
5807 B -2.700966 -1.914756 -10.003490 B
5808 B -2.981517 -2.734813 -9.580200 B
5809 A -3.025943 -2.807118 -10.516510 A
5810 A -2.950063 -3.702099 -10.864340 A
5811 A -3.900474 -3.672657 -10.886390 A
5812 A -4.297513 -4.516256 -10.554930 A
5813 A -5.144063 -4.904691 -10.639020 A
5814 A -5.395629 -5.835833 -10.681570 A
5815 A 8.687669 -9.272963 10.785180 A
5816 A 9.173358 -9.646285 10.019430 A
5817 A 9.002640 -10.351420 9.385222 A
5818 A 8.517323 -11.103480 9.706264 A
5819 A 8.584718 -11.942420 10.098880 A
5820 A 7.844421 -12.463410 10.531900 A
5821 B 7.557328 -11.667020 10.058250 B
5822 B 7.429712 -10.727420 9.968199 B
5823 B 7.965197 -9.978013 9.844308 B
5824 B 7.520050 -9.290302 10.337780 B
5825 B 6.736313 -8.767339 10.326460 B
5826 B 6.012413 -8.208591 10.705280 B
5827 B 5.745962 -8.573689 9.788935 B
5828 A 5.632143 -9.335517 9.156472 A
5829 A 5.831467 -10.012910 8.409035 A
5830 A 5.466296 -10.883070 8.287300 A
5831 A 5.457981 -11.798700 8.683330 A
5832 A 5.252390 -12.566220 9.225907 A
5833 A 4.676624 -13.256760 9.639257 A
5834 A -9.340066 -12.189690 -1.239990 A
5835 A -8.575788 -12.196400 -1.843951 A
5836 A -8.827899 -12.576970 -2.655843 A
5837 A -9.054811 -13.085930 -3.437501 A
5838 A -9.451215 -12.308520 -3.816745 A
5839 A -8.994341 -11.509540 -4.065710 A
5840 B -8.772050 -11.223050 -3.196216 B
5841 B -8.051230 -11.476780 -2.564394 B
5842 B -8.711946 -11.067150 -1.887421 B
5843 B -9.325154 -10.289450 -2.449417 B
5844 B -8.598989 -9.948503 -3.116827 B
5845 B -8.720317 -9.633896 -4.070098 B
5846 B -8.186876 -10.185500 -4.507983 B
5847 A -7.624045 -11.147220 -4.606213 A
5848 A -7.005655 -11.953970 -5.134251 A
5849 A -5.962565 -11.830290 -5.092428 A
5850 A -6.375437 -11.044860 -5.556464 A
5851 A -7.140191 -10.661160 -6.011695 A
5852 A -7.528488 -9.987638 -6.575510 A
5853 A -6.536714 -2.019905 -12.150680 A
5854 A -5.942955 -1.406407 -12.581670 A
5855 A -6.086494 -0.477805 -12.676710 A
5856 A -5.410641 -0.545772 -13.339100 A
5857 A -4.636888 -0.916076 13.299000 A
5858 A -4.536086 -1.715987 -13.296020 A
5859 B -3.892138 -2.357914 -13.000680 B
5860 B -3.199978 -2.119966 13.445990 B
5861 B -4.030987 -2.108914 12.947630 B
5862 B -4.662206 -2.808289 13.105490 B
5863 B -5.009342 -3.465324 -13.402520 B
5864 B -5.011205 -4.350785 13.348520 B
5865 B -5.675806 -5.034706 13.423680 B
5866 A -5.578514 -5.398652 -12.791370 A
5867 A -5.578364 -5.567169 -11.834460 A
5868 A -4.669438 -5.790243 -11.623360 A
5869 A -3.732213 -5.617336 -11.769090 A
5870 A -4.017375 -5.189932 -12.580130 A
5871 A -4.741893 -4.588877 -12.708940 A
5872 A -9.067911 9.114671 -5.205708 A
5873 A -9.680826 9.522593 -5.829884 A
5874 A -9.243102 10.267450 -6.235831 A
5875 A -8.296190 10.249780 -6.403796 A
5876 A -7.865952 9.835382 -5.663440 A
5877 A -7.808940 9.303243 -4.918149 A
5878 B -8.450943 9.169098 -4.186094 B
5879 B -9.035237 9.481187 -3.485084 B
5880 B -9.968385 9.239928 -3.474667 B
5881 B -10.800340 9.075682 -2.992722 B
5882 B -11.760340 9.047576 -2.783886 B
5883 B -12.559660 8.871602 -3.320278 B
5884 B -12.281770 8.769278 -4.214128 B
5885 A -11.688950 9.079254 -4.918587 A
5886 A -10.806060 9.610035 -4.874175 A
5887 A -10.671200 10.452120 -5.239439 A
5888 A -10.172720 11.070110 -5.712007 A
5889 A -10.036040 11.982040 -5.588713 A
5890 A -9.120981 12.033280 -5.538490 A
5891 A 8.478086 -0.958349 5.573871 A
5892 A 8.896194 -1.710328 5.978862 A
5893 A 8.552359 -1.876338 6.865594 A
5894 A 8.110333 -1.347110 7.550552 A
5895 A 7.391085 -0.985694 8.063742 A
5896 A 6.410727 -0.998807 8.060150 A
5897 B 5.903025 -0.379954 7.481765 B
5898 B 5.709532 -0.579751 6.569276 B
5899 B 4.839714 -0.722546 6.224480 B
5900 B 5.457909 -1.315811 5.788386 B
5901 B 5.598923 -2.036763 5.140827 B
5902 B 5.139649 -2.863185 4.853816 B
5903 B 5.185206 -3.587851 5.438665 B
5904 A 5.746112 -4.120890 5.915539 A
5905 A 6.440578 -3.564572 6.245914 A
5906 A 5.949004 -2.870739 6.702064 A
5907 A 5.047863 -2.689498 7.013598 A
5908 A 4.640048 -2.192874 7.737585 A
5909 A 3.972170 -1.984623 8.380958 A
5910 A 5.492328 -5.790349 -1.002209 A
5911 A 5.099340 -6.617506 -0.661451 A
5912 A 5.964304 -6.943169 -0.452138 A
5913 A 6.833360 -6.565422 -0.555477 A
5914 A 7.508186 -6.141125 0.010915 A
5915 A 6.921280 -5.417399 -0.031022 A
5916 B 6.837437 -5.483412 -0.995761 B
5917 B 7.738617 -5.838947 -1.010976 B
5918 B 8.652060 -6.026968 -1.313472 B
5919 B 8.853914 -5.667093 -2.152988 B
5920 B 8.374833 -4.887249 -1.807487 B
5921 B 7.686524 -4.448154 -1.274381 B
5922 B 7.339808 -3.982560 -0.531113 B
5923 A 7.070182 -3.931074 0.383021 A
5924 A 7.796823 -3.587583 0.956881 A
5925 A 8.427486 -4.316947 0.807401 A
5926 A 8.666585 -5.187862 0.421113 A
5927 A 9.315022 -4.921611 -0.243794 A
5928 A 10.072630 -4.776397 -0.829824 A
5929 A -11.679470 -10.823920 5.467769 A
5930 A -11.701210 -11.237600 6.329508 A
5931 A -11.661760 -10.924490 7.253422 A
5932 A -12.293100 -11.106190 7.955245 A
5933 A -13.075550 -11.593760 7.705866 A
5934 A 13.250730 -12.166370 7.742011 A
5935 B 12.952480 -12.987940 8.139127 B
5936 B 12.286620 13.392700 8.231531 B
5937 B 11.948980 12.539300 8.003211 B
5938 B 12.245090 12.111600 7.197180 B
5939 B 12.119090 11.464710 6.512166 B
5940 B 12.302170 10.890480 5.780463 B
5941 B 12.525670 10.586670 4.915319 B
5942 A 13.008990 10.787340 4.081138 A
5943 A 13.459070 11.156830 3.285143 A
5944 A -12.810020 11.231290 2.859700 A
5945 A -12.238650 12.036480 2.745154 A
5946 A -11.949640 12.941080 2.889018 A
5947 A -12.100060 13.510650 3.640725 A
5948 A 8.779464 1.043142 -3.556858 A
5949 A 8.417911 0.204555 -3.342433 A
5950 A 7.463325 -0.043016 -3.433528 A
5951 A 6.702464 -0.538882 -3.806620 A
5952 A 6.041093 0.138723 -3.956176 A
5953 A 5.842251 1.031231 -3.784028 A
5954 B 5.418884 1.666622 -3.197761 B
5955 B 4.740592 1.441787 -2.529943 B
5956 B 4.346578 1.115705 -1.699470 B
5957 B 5.019548 0.506566 -1.318395 B
5958 B 5.200187 0.509971 -0.424646 B
5959 B 4.505471 0.681612 0.228737 B
5960 B 3.643914 1.118883 0.261668 B
5961 A 2.908157 0.730704 -0.182439 A
5962 A 2.406152 -0.090742 -0.377480 A
5963 A 1.726737 0.351924 0.131025 A
5964 A 1.732571 0.943312 0.879340 A
5965 A 2.423209 1.410151 1.352172 A
5966 A 3.361152 1.322873 1.452706 A
5967 A 12.965650 3.726578 -3.451324 A
5968 A -13.491370 4.330884 -3.111705 A
5969 A -12.785300 4.750038 -2.602276 A
5970 A -12.228180 5.163464 -3.275128 A
5971 A -11.748270 5.934155 -3.625423 A
5972 A -11.265560 6.685510 -3.249019 A
5973 B -10.858630 6.501985 -4.111446 B
5974 B -11.613050 6.728236 -4.587092 B
5975 B -12.587520 6.454059 -4.842345 B
5976 B -13.484500 6.733974 -4.819485 B
5977 B 13.110580 5.958419 -5.260930 B
5978 B 13.057610 5.272440 -5.882841 B
5979 B 12.303140 4.819454 -5.365366 B
5980 A 12.981840 4.231203 -5.027128 A
5981 A 12.807200 3.734413 -5.846806 A
5982 A 13.294280 3.745780 -6.665574 A
5983 A -13.218160 3.465947 -7.372198 A
5984 A -12.917570 2.552337 -7.553049 A
5985 A 13.373330 2.371162 -7.020257 A
5986 A 4.780724 -7.087033 1.660527 A
5987 A 4.236439 -6.648867 0.974443 A
5988 A 4.094593 -7.128168 0.175022 A
5989 A 3.472569 -7.774057 -0.081228 A
5990 A 3.346376 -8.684855 -0.243479 A
5991 A 3.136511 -8.632133 0.721454 A
5992 B 2.338635 -8.521692 1.186303 B
5993 B 1.526470 -8.932574 1.411469 B
5994 B 0.696653 -8.809612 0.952071 B
5995 B 0.077041 -9.043879 0.184902 B
5996 B 0.679256 -8.327834 0.034124 B
5997 B 1.368916 -8.853764 -0.377323 B
5998 B 1.668630 -9.753057 -0.495375 B
5999 A 0.905500 -10.274840 -0.756418 A
6000 A 0.314916 -10.405440 -1.502099 A
6001 A 0.372870 -11.155940 -0.955062 A
6002 A 1.082561 -11.685290 -0.673231 A
6003 A 0.680919 -11.453800 0.206045 A
6004 A -0.260719 -11.920130 -0.100353 A
6005 A 11.046410 11.062630 -12.897240 A
6006 A 10.359320 11.634980 -13.296190 A
6007 A 9.552517 12.048490 13.424200 A
6008 A 8.746868 12.304470 13.013930 A
6009 A 8.226873 13.019100 12.685580 A
6010 A 8.496798 -13.336630 13.170960 A
6011 B 8.820512 -13.044450 -13.070880 B
6012 B 9.511658 -12.964460 -12.416520 B
6013 B 9.645366 13.201700 -12.215100 B
6014 B 9.540339 12.262150 -11.986280 B
6015 B 9.775114 11.342270 -11.898070 B
6016 B 10.044890 10.458810 -12.110050 B
6017 B 10.410040 9.582331 -12.094820 B
6018 A 10.996340 8.819294 -12.070810 A
6019 A 11.350980 8.082186 -11.548640 A
6020 A 11.864670 8.266411 -10.787560 A
6021 A 12.095470 8.370799 -9.844015 A
6022 A 12.589470 8.747142 -9.144280 A
6023 A 13.334560 8.839892 -8.559952 A
6024 A -11.096330 -5.427215 13.063220 A
6025 A -11.174960 -5.796711 12.167970 A
6026 A -10.497840 -6.300871 11.689120 A
6027 A -9.721113 -6.044508 11.211010 A
6028 A -9.225102 -5.370877 10.782740 A
6029 A -9.566023 -4.684684 10.204970 A
6030 B -9.933949 -3.942031 9.669326 B
6031 B -10.578700 -3.623858 9.004821 B
6032 B -10.843230 -3.219364 8.187712 B
6033 B -11.639970 -3.128844 7.628234 B
6034 B -12.035640 -2.481549 6.965604 B
6035 B -11.550880 -1.649111 6.973066 B
6036 B -10.663000 -1.366376 7.308843 B
6037 A -10.101430 -0.935166 6.643076 A
6038 A -10.098450 -0.932906 5.663372 A
6039 A -9.901945 -1.846481 5.429810 A
6040 A -9.792107 -2.648964 4.939736 A
6041 A -10.154550 -3.459198 4.659738 A
6042 A -9.823265 -4.339283 4.526432 A
6043 A -0.937936 2.222471 -0.401438 A
6044 A -0.800551 2.881430 -1.086712 A
6045 A -1.173442 3.712233 -1.328147 A
6046 A -0.519345 4.356128 -1.568220 A
6047 A -0.456923 5.249189 -1.916782 A
6048 A -1.188220 5.684800 -1.528450 A
6049 B -2.114315 5.793859 -1.467130 B
6050 B -1.844576 6.160397 -2.291984 B
6051 B -1.997357 6.303138 -3.249758 B
6052 B -1.569111 5.575699 -3.703127 B
6053 B -1.858564 5.290181 -4.561055 B
6054 B -1.615656 5.720159 -5.362707 B
6055 B -1.414649 6.279460 -6.027439 B
6056 A -0.856461 6.848496 -6.517178 A
6057 A -0.904667 7.748956 -6.139840 A
6058 A -1.680254 7.953073 -6.694144 A
6059 A -2.395195 7.422230 -6.349359 A
6060 A -2.667221 6.529440 -6.228088 A
6061 A -2.347813 5.605620 -6.387494 A
6062 A 12.563430 -6.249729 3.223099 A
6063 A 12.060790 -6.457433 2.418410 A
6064 A 11.400570 -7.082014 2.681134 A
6065 A 10.845160 -7.772394 3.073225 A
6066 A 10.062000 -8.261977 3.411269 A
6067 A 9.555315 -9.034296 3.736089 A
6068 B 10.026480 -9.782549 4.102794 B
6069 B 10.355820 -10.602800 3.705965 B
6070 B 11.169450 -10.128390 3.685338 B
6071 B 11.388480 -9.255340 4.028787 B
6072 B 11.380910 -8.358722 4.419133 B
6073 B 10.538340 -8.002736 4.799064 B
6074 B 9.681049 -7.619491 4.618723 B
6075 A 9.328587 -7.637657 3.715340 A
6076 A 9.468693 -7.654282 2.784219 A
6077 A 9.775683 -7.804074 1.895408 A
6078 A 10.567730 -7.490730 1.467600 A
6079 A 11.279500 -7.817369 0.931955 A
6080 A 12.000440 -8.140200 1.559664 A
6081 A -3.265243 -10.909820 0.804368 A
6082 A -3.239655 -11.918310 0.580065 A
6083 A -3.301767 -12.240710 -0.337326 A
6084 A -3.339757 -12.078260 -1.268630 A
6085 A -3.351155 -12.239180 -2.262182 A
6086 A -2.906747 -11.589800 -2.834006 A
6087 B -3.746603 -11.228480 -2.943977 B
6088 B -4.393431 -10.411840 -3.157955 B
6089 B -5.016781 -9.801255 -3.606844 B
6090 B -5.461421 -10.238400 -4.509380 B
6091 B -6.204198 -9.752481 -4.655533 B
6092 B -6.301301 -8.760668 -4.129371 B
6093 B -5.676676 -8.640300 -4.820639 B
6094 A -4.797735 -8.348482 -5.439438 A
6095 A -4.310780 -9.186011 -5.809751 A
6096 A -3.573323 -9.118842 -5.157765 A
6097 A -2.927438 -9.227365 -4.467650 A
6098 A -2.096036 -9.486353 -4.066712 A
6099 A -1.212402 -9.687131 -3.921003 A
6100 A 9.676829 8.036644 3.494516 A
6101 A 9.082127 8.080832 4.247975 A
6102 A 8.212278 8.353763 4.595458 A
6103 A 7.635104 8.949974 5.082925 A
6104 A 8.294636 9.556577 4.766684 A
6105 A 9.106865 9.069446 4.951580 A
6106 B 9.367542 8.231706 5.356018 B
6107 B 9.857947 7.772826 6.050232 B
6108 B 10.448680 7.932919 6.818063 B
6109 B 11.399290 7.867421 6.646100 B
6110 B 12.171490 7.279756 6.576837 B
6111 B 12.968290 7.154376 6.043446 B
6112 B 12.917210 7.059575 5.092379 B
6113 A 12.343840 7.760826 4.741690 A
6114 A 11.891840 8.583337 4.912153 A
6115 A 11.213980 9.175313 5.234005 A
6116 A 10.346700 9.204041 5.660191 A
6117 A 10.570770 8.342513 5.311118 A
6118 A 10.972370 7.596224 4.846526 A
6119 A 5.423146 10.316570 0.592967 A
6120 A 4.815181 11.086700 0.638215 A
6121 A 4.916636 11.222360 -0.342010 A
6122 A 5.712109 11.629610 -0.745906 A
6123 A 5.536361 12.202000 -1.584509 A
6124 A 5.180633 13.107250 -1.452623 A
6125 B 5.573437 -13.366240 -0.816882 B
6126 B 5.831474 -12.874070 -0.098389 B
6127 B 6.104576 -12.723490 0.866397 B
6128 B 5.185086 -12.709830 1.100540 B
6129 B 4.362276 -12.187270 1.069350 B
6130 B 3.457029 -11.826460 1.097903 B
6131 B 3.236691 -11.627550 0.181295 B
6132 A 3.152789 -10.746250 -0.035435 A
6133 A 3.586109 -10.466180 0.762864 A
6134 A 4.095518 -10.751500 1.625671 A
6135 A 4.804366 -10.733030 2.229401 A
6136 A 5.332140 -11.234270 2.947327 A
6137 A 5.934397 -11.469660 2.148065 A
6138 A 1.065181 -10.112110 -10.612920 A
6139 A 1.149704 -10.975740 -10.148160 A
6140 A 0.566651 -11.713200 -10.227540 A
6141 A 0.039279 -12.517310 -10.092490 A
6142 A 0.882547 -12.906890 -9.806285 A
6143 A 0.292875 -13.430660 -9.165457 A
6144 B 0.620065 13.112600 -8.502245 B
6145 B 1.555337 12.787350 -8.379005 B
6146 B 1.225690 13.079380 -7.512743 B
6147 B 0.958034 13.060280 -6.635473 B
6148 B 1.704613 -13.328560 -6.660974 B
6149 B 1.389802 13.544500 -5.786325 B
6150 B 0.437255 -13.402170 -5.353733 B
6151 A 0.431036 -12.682080 -5.964424 A
6152 A -0.107061 -13.418760 -6.203878 A
6153 A -0.613099 13.081530 -5.604765 A
6154 A -0.571350 12.108410 -5.429600 A
6155 A -0.927227 12.154850 -4.516918 A
6156 A -1.644115 11.797090 -5.066558 A
6157 A -12.583740 6.790109 -11.364730 A
6158 A -12.639060 7.666325 -11.827080 A
6159 A -11.866610 8.292159 -11.763110 A
6160 A -12.028210 9.176582 -11.432750 A
6161 A -11.816610 10.075150 -11.346790 A
6162 A -11.320060 10.881540 -11.146980 A
6163 B -10.602590 11.554470 -10.929520 B
6164 B -9.675270 11.887510 -10.772020 B
6165 B -9.746018 11.517860 -9.902286 B
6166 B -10.597700 11.872020 -9.719604 B
6167 B -11.463350 11.605200 -9.997596 B
6168 B -12.135370 11.814200 -10.657150 B
6169 B -12.174360 11.796530 -11.612810 B
6170 A -12.290540 11.593590 -12.548810 A
6171 A -12.433200 10.642570 -12.674220 A
6172 A -12.333500 9.677990 -12.715460 A
6173 A -12.544000 8.726077 -12.641690 A
6174 A -12.917860 7.861341 -12.777460 A
6175 A 13.363680 7.373724 -12.805530 A
6176 A 3.179951 12.198780 7.962520 A
6177 A 2.816679 13.111490 7.875689 A
6178 A 1.974813 13.523590 7.719990 A
6179 A 1.452548 -12.786030 7.875968 A
6180 A 0.497139 -12.644770 7.942137 A
6181 A 0.553004 13.502470 7.730856 A
6182 B 0.756849 12.767370 7.152083 B
6183 B 0.080552 12.108090 7.027387 B
6184 B -0.851642 12.118000 7.307772 B
6185 B -0.705044 12.898760 7.797058 B
6186 B -0.232178 13.403250 8.473875 B
6187 B 0.213779 -13.009350 9.010986 B
6188 B 0.920299 -12.593110 9.526245 B
6189 A 1.743264 -12.786600 10.047570 A
6190 A 1.317820 -12.760530 10.936410 A
6191 A 0.642980 -12.362110 11.494440 A
6192 A -0.174052 -12.441550 11.966520 A
6193 A -1.082540 -12.369620 11.687640 A
6194 A -1.800356 -11.761300 12.009400 A
6195 A 6.698550 -7.198770 9.398375 A
6196 A 5.951880 -7.453360 8.825581 A
6197 A 5.179832 -8.052629 8.987787 A
6198 A 4.906732 -8.818390 8.463703 A
6199 A 4.412039 -9.505889 8.821058 A
6200 A 3.847713 -9.644845 9.580645 A
6201 B 3.800364 -10.614260 9.366309 B
6202 B 4.018581 -11.477900 8.973832 B
6203 B 4.331541 -12.333500 8.609536 B
6204 B 4.964755 -12.901320 8.204003 B
6205 B 5.678237 -13.540830 8.140627 B
6206 B 6.536856 -13.169260 7.726298 B
6207 B 6.501746 -12.201570 7.587996 B
6208 A 6.601257 -11.277810 7.354384 A
6209 A 6.686465 -10.584120 7.947629 A
6210 A 7.256964 -9.765629 8.017366 A
6211 A 7.813057 -9.052147 7.578580 A
6212 A 8.253532 -8.223826 7.220931 A
6213 A 8.891710 -7.506488 7.329398 A
6214 A 5.329573 4.599039 -10.950720 A
6215 A 4.627800 5.233617 -11.153890 A
6216 A 3.739698 5.462804 -10.849520 A
6217 A 3.203503 4.805758 -10.415130 A
6218 A 3.385149 4.001141 -9.901152 A
6219 A 3.531569 3.571599 -9.038084 A
6220 B 3.752345 4.034195 -8.236403 B
6221 B 3.630985 4.984081 -8.207279 B
6222 B 3.297034 5.881799 -8.416533 B
6223 B 3.102977 6.767329 -8.756180 B
6224 B 2.994614 7.574333 -9.263514 B
6225 B 3.022359 8.440883 -8.841719 B
6226 B 3.217424 8.303227 -7.912539 B
6227 A 3.297958 7.551737 -7.343243 A
6228 A 2.486268 7.045561 -7.198756 A
6229 A 2.085771 6.402065 -7.784992 A
6230 A 1.726805 6.474944 -8.656724 A
6231 A 0.887343 6.587705 -9.100394 A
6232 A 0.351421 6.068119 -9.723488 A
6233 A 12.680480 -1.968696 1.889387 A
6234 A 12.546460 -2.188462 2.804546 A
6235 A 12.600910 -3.141012 2.944988 A
6236 A 12.969830 -3.966686 2.623499 A
6237 A 12.908000 -4.698656 3.227873 A
6238 A 11.957020 -4.708232 3.302103 A
6239 B 11.290480 -4.040506 3.671751 B
6240 B 11.029850 -3.159719 3.425256 B
6241 B 10.455030 -2.497652 3.044517 B
6242 B 9.914774 -2.228912 2.303804 B
6243 B 9.333195 -1.836625 1.629867 B
6244 B 9.034074 -1.931914 0.722539 B
6245 B 8.441424 -2.162922 -0.022738 B
6246 A 8.355100 -2.565487 -0.914530 A
6247 A 8.853827 -3.323146 -0.671922 A
6248 A 8.774031 -4.156038 -1.068361 A
6249 A 8.311202 -3.787157 -1.852121 A
6250 A 9.172058 -3.965917 -2.187744 A
6251 A 10.119370 -4.124965 -2.393132 A
6252 A -9.539775 -2.698697 6.917342 A
6253 A -9.795720 -3.358338 7.579586 A
6254 A -10.096670 -4.251970 7.387744 A
6255 A -10.398420 -4.848064 8.055820 A
6256 A -11.145790 -4.866852 8.663254 A
6257 A -11.153720 -4.720611 9.631250 A
6258 B -11.039960 -3.859349 9.934225 B
6259 B -11.451700 -3.165660 9.441186 B
6260 B -10.964310 -2.358872 9.198011 B
6261 B -10.796000 -1.616634 8.608914 B
6262 B -11.577760 -1.891551 8.142634 B
6263 B -12.474590 -1.553723 8.058883 B
6264 B -12.578930 -0.894975 8.770982 B
6265 A -12.969370 -0.725533 9.634885 A
6266 A -13.158700 -0.290305 10.437680 A
6267 A -13.015410 0.679221 10.494360 A
6268 A -13.233850 1.643087 10.617100 A
6269 A 13.385460 2.395508 10.258570 A
6270 A 12.912270 3.126849 9.862885 A
6271 A -2.913926 2.021272 -0.767482 A
6272 A -2.491970 1.583750 -0.024346 A
6273 A -1.629373 1.223003 0.156786 A
6274 A -0.870515 0.972242 -0.338344 A
6275 A 0.088751 0.974048 -0.412185 A
6276 A 0.873778 1.148495 -0.901953 A
6277 B 1.249142 1.332705 -1.743256 B
6278 B 1.345002 1.543353 -2.639253 B
6279 B 1.403217 2.469239 -2.798581 B
6280 B 2.150361 2.203794 -2.232752 B
6281 B 3.031881 1.845236 -2.160825 B
6282 B 3.508322 1.208217 -2.679068 B
6283 B 3.673096 1.438753 -3.593863 B
6284 A 3.736397 2.272634 -4.051935 A
6285 A 4.251761 2.803335 -4.637961 A
6286 A 5.078569 2.318686 -4.534678 A
6287 A 4.753545 2.255104 -5.491374 A
6288 A 4.973071 1.588961 -6.127406 A
6289 A 4.646685 0.936316 -5.373598 A
6290 A -2.124024 13.106260 -2.868302 A
6291 A -1.439685 12.974360 -2.221428 A
6292 A -1.590213 12.698120 -1.308341 A
6293 A -1.460176 12.285570 -0.432375 A
6294 A -1.467463 11.371830 -0.744502 A
6295 A -0.895153 11.675440 -1.477007 A
6296 B -0.658931 10.979210 -2.090874 B
6297 B -0.072181 10.899480 -1.349812 B
6298 B 0.654462 11.243330 -0.792720 B
6299 B 1.114787 10.786150 -0.096823 B
6300 B 1.408537 11.155740 0.720179 B
6301 B 2.257948 11.560680 0.890111 B
6302 B 3.216403 11.820790 0.667058 B
6303 A 3.538345 11.519990 -0.161924 A
6304 A 3.965337 11.292100 -1.008257 A
6305 A 3.917058 10.890130 -1.863370 A
6306 A 4.247764 11.523900 -2.561775 A
6307 A 5.051773 11.198270 -2.973871 A
6308 A 5.923952 11.310740 -2.584948 A
6309 A -9.147004 13.055590 -12.142520 A
6310 A -8.884681 12.375910 -11.547990 A
6311 A -8.248750 11.947010 -10.980860 A
6312 A -7.445597 11.617500 -10.571890 A
6313 A -6.534575 11.708210 -10.390260 A
6314 A -5.884108 12.006650 -10.968490 A
6315 B -6.060376 11.597120 -11.819350 B
6316 B -6.365327 10.932890 -12.397200 B
6317 B -6.091766 10.683740 -13.256620 B
6318 B -6.526019 10.388370 13.008150 B
6319 B -6.752041 10.707310 12.139340 B
6320 B -5.817757 10.876220 12.214990 B
6321 B -5.352306 10.097160 11.900780 B
6322 A -4.372387 10.007100 11.926730 A
6323 A -3.879025 9.448613 11.336860 A
6324 A -3.284752 8.719706 11.628420 A
6325 A -3.203665 8.192500 12.439980 A
6326 A -2.856129 7.927632 13.280900 A
6327 A -2.569747 7.211091 -13.291520 A
6328 A -12.869400 1.025115 -9.170248 A
6329 A -12.154040 1.430630 -8.636147 A
6330 A -11.672010 2.230477 -8.817081 A
6331 A -12.299540 2.905347 -8.517037 A
6332 A -12.804990 3.651311 -8.991784 A
6333 A -12.683520 4.020228 -9.864923 A
6334 B -11.912050 4.190195 -10.431410 B
6335 B -11.555750 4.084766 -11.293950 B
6336 B -10.922540 3.750394 -11.981050 B
6337 B -10.224400 3.216927 -11.707990 B
6338 B -10.852410 3.197088 -11.025660 B
6339 B -10.657510 3.314266 -10.108250 B
6340 B -10.410540 4.279934 -10.039600 B
6341 A -10.767940 5.165629 -9.674150 A
6342 A -11.658330 5.565311 -9.641122 A
6343 A -12.517270 5.859940 -10.011310 A
6344 A -13.305270 5.780818 -10.506600 A
6345 A 13.391860 4.929996 -10.626660 A
6346 A 13.071020 4.174742 -10.146220 A
6347 A -4.517346 0.302086 -10.550480 A
6348 A -5.291819 0.559595 -10.098960 A
6349 A -6.050399 0.149862 -10.523370 A
6350 A -6.864955 0.362776 -9.869621 A
6351 A -7.316038 -0.157113 -10.491240 A
6352 A -8.183963 -0.669274 -10.698670 A
6353 B -7.739029 -0.832939 -11.510750 B
6354 B -6.771761 -0.862401 -11.347530 B
6355 B -5.820014 -0.826139 -11.034120 B
6356 B -5.130165 -1.109064 -10.474870 B
6357 B -4.536602 -1.556739 -9.873407 B
6358 B -4.017722 -2.046612 -9.256622 B
6359 B -4.659881 -2.071931 -8.543074 B
6360 A -5.528324 -2.070554 -8.064193 A
6361 A -5.963628 -1.228591 -8.109179 A
6362 A -5.703679 -0.545834 -8.721822 A
6363 A -6.277534 0.230757 -8.816195 A
6364 A -7.001808 -0.378560 -8.955004 A
6365 A -7.159667 -0.463538 -8.034299 A
6366 A -8.222335 3.005992 -7.645380 A
6367 A -7.817560 3.682957 -7.017819 A
6368 A -8.039203 4.100729 -7.809142 A
6369 A -8.157656 3.661403 -8.642272 A
6370 A -7.479826 3.372519 -9.216511 A
6371 A -7.175543 3.903704 -10.001020 A
6372 B -7.581460 4.391581 -10.723000 B
6373 B -8.346779 4.981912 -10.696320 B
6374 B -8.973125 4.548113 -11.331350 B
6375 B -9.409077 4.104934 -12.077480 B
6376 B -9.115655 3.157356 -11.950950 B
6377 B -9.398627 2.238846 -12.094490 B
6378 B -8.999298 2.209719 -11.198430 B
6379 A -9.098879 1.800259 -10.291590 A
6380 A -8.657497 1.869052 -9.481947 A
6381 A -7.942374 1.462591 -9.006673 A
6382 A -7.282170 1.379955 -9.661242 A
6383 A -7.239651 1.628314 -10.599200 A
6384 A -6.261448 1.417284 -10.400280 A
6385 A 3.945300 -3.261095 2.472993 A
6386 A 3.201547 -2.990985 3.003406 A
6387 A 3.740270 -3.340514 3.694361 A
6388 A 3.914569 -4.292130 3.355716 A
6389 A 4.440386 -4.909781 2.748336 A
6390 A 4.808934 -5.666553 2.214104 A
6391 B 4.347366 -6.402238 2.559087 B
6392 B 3.473248 -6.524920 2.922139 B
6393 B 2.907063 -6.187796 3.636366 B
6394 B 2.397935 -5.430403 3.434923 B
6395 B 2.139691 -4.508300 3.288456 B
6396 B 2.281368 -3.609912 2.917769 B
6397 B 1.476253 -3.618625 3.463630 B
6398 A 0.851817 -3.740165 4.213893 A
6399 A 1.385247 -4.049786 4.949169 A
6400 A 1.875820 -4.040600 5.782915 A
6401 A 2.548834 -4.684047 6.031635 A
6402 A 3.078833 -4.649971 5.215423 A
6403 A 3.417855 -4.520929 4.306318 A
6404 A 2.123219 -3.936681 1.523397 A
6405 A 2.654556 -4.426704 2.204819 A
6406 A 2.961827 -5.230501 2.521244 A
6407 A 3.447981 -5.275708 3.401019 A
6408 A 4.110534 -5.969558 3.549975 A
6409 A 4.262874 -6.898663 3.684131 A
6410 B 3.488851 -7.525301 3.650840 B
6411 B 3.509541 -8.168825 2.889349 B
6412 B 2.718374 -7.977718 2.412539 B
6413 B 2.817837 -7.040347 2.294643 B
6414 B 2.084399 -6.532515 2.720937 B
6415 B 1.769492 -7.358722 2.371529 B
6416 B 1.032829 -7.628011 2.945066 B
6417 A 0.091782 -7.476404 3.099762 A
6418 A -0.534627 -7.508438 3.831687 A
6419 A -0.292536 -8.089238 4.555206 A
6420 A 0.482547 -8.197939 5.090598 A
6421 A 1.337037 -8.539680 4.732467 A
6422 A 2.069027 -8.065040 4.334020 A
6423 A -2.647721 2.523805 -10.961960 A
6424 A -3.158914 1.756509 -11.243560 A
6425 A -3.458742 1.790759 -12.123580 A
6426 A -3.821727 2.052578 -12.978680 A
6427 A -4.549639 1.465100 -12.716360 A
6428 A -5.342144 1.249104 -12.232810 A
6429 B -6.161390 1.213560 -11.735320 B
6430 B -7.022754 0.804505 -11.822930 B
6431 B -7.998495 0.855397 -11.887670 B
6432 B -8.687448 0.466640 -11.388460 B
6433 B -8.813555 0.524550 -10.391320 B
6434 B -8.933666 0.808799 -9.471349 B
6435 B -9.590404 1.123959 -8.791678 B
6436 A -8.953605 1.427609 -8.132164 A
6437 A -8.623912 0.734526 -7.541538 A
6438 A -8.094156 0.407233 -6.887160 A
6439 A -7.435930 0.663782 -6.236722 A
6440 A -6.584008 0.924373 -6.683512 A
6441 A -7.139502 0.944272 -7.399559 A
6442 A -12.749460 5.183968 4.841176 A
6443 A -13.501920 5.545237 5.187593 A
6444 A 12.681800 5.142859 5.460104 A
6445 A 12.336050 4.316601 5.061949 A
6446 A 11.667670 4.916821 4.890362 A
6447 A 10.985680 5.094480 4.250887 A
6448 B 11.202070 4.187155 3.916911 B
6449 B 11.939550 3.629936 3.649220 B
6450 B 11.999330 2.759107 3.319973 B
6451 B 11.391980 2.041267 3.373519 B
6452 B 10.569740 1.706644 3.714610 B
6453 B 10.087080 2.393157 4.126276 B
6454 B 10.581680 3.081591 4.555142 B
6455 A 11.290500 2.548509 4.852351 A
6456 A 11.334570 1.639498 4.561501 A
6457 A 12.128860 1.121478 4.846462 A
6458 A 13.072560 0.900432 4.877473 A
6459 A 13.502040 0.059503 5.118118 A
6460 A -13.176380 -0.272251 5.893087 A
6461 A 3.674731 -13.505610 -5.469762 A
6462 A 3.671908 12.686590 -5.681397 A
6463 A 3.937315 11.886550 -6.168183 A
6464 A 4.517659 11.690060 -6.923563 A
6465 A 4.878480 10.828200 -7.101274 A
6466 A 5.521730 10.490320 -7.749258 A
6467 B 6.451709 10.792750 -7.868609 B
6468 B 7.272452 11.285570 -7.949542 B
6469 B 7.889109 11.409580 -8.669368 B
6470 B 7.875555 10.458750 -8.503803 B
6471 B 7.441212 9.813529 -7.931204 B
6472 B 6.508405 9.540605 -7.908734 B
6473 B 6.314537 8.742661 -7.387095 B
6474 A 6.560699 8.230370 -6.600201 A
6475 A 7.160015 7.698957 -6.076120 A
6476 A 7.862109 8.245828 -5.751036 A
6477 A 7.932196 9.065036 -6.287816 A
6478 A 8.454780 9.800894 -6.553603 A
6479 A 8.003097 10.464180 -7.066953 A
6480 A -4.212007 -11.815340 0.095957 A
6481 A -4.710869 -12.653180 -0.222490 A
6482 A -4.288882 -13.259760 0.374231 A
6483 A -3.687541 -12.919240 1.033399 A
6484 A -3.961871 -12.976390 1.927709 A
6485 A -4.488281 -12.186020 1.892694 A
6486 B -5.337710 -12.046800 1.427272 B
6487 B -6.275781 -11.905880 1.573833 B
6488 B -7.143915 -12.026260 1.184849 B
6489 B -6.854619 -11.270920 0.650425 B
6490 B -6.188725 -10.631940 0.554316 B
6491 B -6.517016 -9.701859 0.731683 B
6492 B -7.134044 -8.986904 0.933062 B
6493 A -7.079840 -8.064150 1.373624 A
6494 A -6.952190 -7.179573 1.700018 A
6495 A -6.847082 -6.456640 1.038474 A
6496 A -6.126056 -5.968863 0.590156 A
6497 A -5.175120 -6.000040 0.450089 A
6498 A -4.530826 -5.304932 0.691145 A
6499 A -8.936413 -0.760509 -4.237833 A
6500 A -8.494974 0.076330 -4.048200 A
6501 A -8.896818 -0.220302 -3.224072 A
6502 A -8.750690 -1.077260 -2.854643 A
6503 A -9.121205 -0.979352 -1.967841 A
6504 A -8.540898 -0.469031 -1.422471 A
6505 B -8.063881 -1.262709 -1.668180 B
6506 B -7.435126 -1.950948 -1.903081 B
6507 B -7.210468 -1.445639 -2.680632 B
6508 B -7.823559 -0.723521 -2.901729 B
6509 B -7.886127 -0.878258 -3.849320 B
6510 B -7.125803 -1.339517 -4.160645 B
6511 B -7.484411 -2.076483 -3.630373 B
6512 A -7.718472 -2.949319 -3.259483 A
6513 A -8.349194 -3.679485 -3.243013 A
6514 A -9.170352 -3.546733 -2.831708 A
6515 A -9.329673 -3.145118 -1.981161 A
6516 A -8.559801 -3.149418 -1.413907 A
6517 A -7.675986 -2.889032 -1.186146 A
6518 A -9.954265 13.473540 12.306830 A
6519 A -9.591248 -13.426810 11.480260 A
6520 A -8.848341 -12.867410 11.241370 A
6521 A -7.972934 -12.763700 11.569480 A
6522 A -7.260964 -13.424260 11.744900 A
6523 A -6.493999 13.109840 11.686590 A
6524 B -5.661884 13.057660 11.243150 B
6525 B -6.178252 12.365380 10.737750 B
6526 B -6.642434 11.577320 10.518090 B
6527 B -6.574319 10.645070 10.657880 B
6528 B -6.328752 10.738550 9.714043 B
6529 B -6.370593 11.703350 9.461434 B
6530 B -6.643649 12.570180 9.045559 B
6531 A -7.243896 11.864780 8.741972 A
6532 A -6.665067 11.094370 8.639947 A
6533 A -6.472862 10.186920 8.274940 A
6534 A -6.683132 9.258596 8.055568 A
6535 A -7.003574 8.544103 8.657618 A
6536 A -7.793300 8.076845 8.583472 A
6537 A -4.872361 -0.614448 4.049103 A
6538 A -4.437080 -0.262470 3.273859 A
6539 A -4.889761 -0.192384 2.403803 A
6540 A -4.798340 -0.373424 1.474984 A
6541 A -5.372545 -0.892687 0.887905 A
6542 A -5.092797 -1.313614 0.086842 A
6543 B -4.879943 -2.217355 0.107343 B
6544 B -4.964083 -3.201727 0.083410 B
6545 B -5.379663 -2.999419 0.966356 B
6546 B -6.156805 -2.588080 1.342597 B
6547 B -6.828522 -2.881121 0.716042 B
6548 B -7.098180 -3.039278 -0.189881 B
6549 B -6.447873 -2.661705 -0.843843 B
6550 A -6.912399 -1.832589 -0.906771 A
6551 A -6.057064 -1.553536 -0.694863 A
6552 A -5.225639 -1.954841 -1.023551 A
6553 A -4.297997 -2.353670 -1.044638 A
6554 A -3.391197 -2.339456 -1.277286 A
6555 A -2.482434 -2.590979 -1.413373 A
6556 A 9.922223 -2.039050 5.551898 A
6557 A 9.743428 -2.981350 5.507179 A
6558 A 9.365427 -3.862854 5.462508 A
6559 A 8.893209 -4.417167 4.869919 A
6560 A 8.934823 -4.024082 3.979475 A
6561 A 9.367134 -3.211358 3.764598 A
6562 B 9.938999 -2.482558 4.033782 B
6563 B 10.703230 -2.146588 4.494612 B
6564 B 11.094400 -1.314993 4.764575 B
6565 B 10.609790 -0.486090 4.774960 B
6566 B 10.215910 0.391235 4.879233 B
6567 B 9.989806 0.607087 5.779997 B
6568 B 9.571776 1.386645 6.115060 B
6569 A 9.919022 1.888423 6.835101 A
6570 A 10.408210 1.405906 7.488607 A
6571 A 11.074280 0.919162 7.960606 A
6572 A 11.516710 0.885677 7.102447 A
6573 A 12.247800 0.454624 6.680014 A
6574 A 13.107570 0.149094 6.356249 A
6575 A -1.034835 -5.789314 6.310599 A
6576 A -1.210427 -5.352787 5.451498 A
6577 A -1.526820 -5.907761 4.746582 A
6578 A -0.793846 -6.504036 4.884548 A
6579 A -0.647291 -7.130075 5.568081 A
6580 A -0.545237 -8.055581 5.890132 A
6581 B -0.113405 -8.872808 6.119553 B
6582 B 0.406013 -9.692050 6.146189 B
6583 B 0.673173 -10.355470 5.475710 B
6584 B 0.373881 -10.880070 4.727570 B
6585 B 0.288616 -11.274480 3.845082 B
6586 B 0.353846 -11.872980 3.139731 B
6587 B 1.235703 -11.977530 2.750121 B
6588 A 2.068996 -11.863910 2.268109 A
6589 A 2.765278 -11.223260 2.355628 A
6590 A 2.379382 -10.958380 1.528211 A
6591 A 1.709130 -10.381020 1.162174 A
6592 A 1.123028 -10.199410 0.396949 A
6593 A 0.118875 -10.167630 0.347045 A
6594 A 0.416182 -11.710750 -13.399460 A
6595 A -0.322949 -11.200010 -13.036330 A
6596 A -1.033113 -10.882660 -12.506000 A
6597 A -1.719488 -10.376650 -12.102120 A
6598 A -1.901129 -11.054940 -11.463660 A
6599 A -2.079068 -11.972240 -11.567230 A
6600 B -1.206950 -12.390360 -11.664380 B
6601 B -1.312163 -13.345900 -11.642120 B
6602 B -1.947269 -12.994910 -12.256160 B
6603 B -2.163204 -12.183460 -12.753440 B
6604 B -2.610507 -11.469980 -13.164150 B
6605 B -3.219419 -10.894150 13.515490 B
6606 B -3.423541 -10.846940 12.585360 B
6607 A -3.334563 -10.992510 11.633450 A
6608 A -3.086237 -10.284590 11.018360 A
6609 A -3.422872 -9.768967 10.302430 A
6610 A -3.974596 -9.279120 9.698485 A
6611 A -4.465351 -8.485806 9.878315 A
6612 A -4.797851 -7.596714 9.806491 A
6613 A 12.007020 0.334795 8.469106 A
6614 A 12.325940 -0.531299 8.757185 A
6615 A 12.572390 -1.401973 9.075486 A
6616 A 12.230480 -2.307798 9.034825 A
6617 A 12.289270 -2.710161 8.179720 A
6618 A 11.500310 -3.145171 7.764832 A
6619 B 11.079030 -2.311005 7.557133 B
6620 B 10.397360 -1.670411 7.358298 B
6621 B 9.736041 -1.170542 6.842172 B
6622 B 9.594378 -0.779090 6.033626 B
6623 B 8.957338 -0.019194 6.066108 B
6624 B 8.679216 0.131405 5.099474 B
6625 B 9.256812 -0.267154 4.394590 B
6626 A 9.472951 -1.182622 4.527129 A
6627 A 8.771320 -1.681233 4.080203 A
6628 A 8.582673 -0.823761 3.729924 A
6629 A 7.759816 -0.977488 3.321021 A
6630 A 8.061712 -0.118610 2.954250 A
6631 A 8.536147 0.622354 3.420176 A
6632 A 2.581378 4.343668 6.569885 A
6633 A 1.999679 3.661492 6.985542 A
6634 A 2.331296 3.370115 7.859454 A
6635 A 2.951068 3.390571 8.565948 A
6636 A 3.841929 3.653827 8.839970 A
6637 A 4.682326 3.523595 9.308238 A
6638 B 5.476221 4.045334 9.339877 B
6639 B 5.917161 3.930847 8.523821 B
6640 B 5.101677 4.086609 8.076804 B
6641 B 4.414834 3.412343 7.943618 B
6642 B 3.943660 3.001982 7.216870 B
6643 B 3.978287 3.080376 6.287449 B
6644 B 4.848137 2.857438 5.831165 B
6645 A 5.400049 2.883635 5.070096 A
6646 A 5.820586 3.268216 4.297522 A
6647 A 6.560256 3.246045 3.747203 A
6648 A 6.569070 2.901618 2.843238 A
6649 A 7.544459 2.734504 2.790336 A
6650 A 8.162659 3.119349 2.154043 A
6651 A -3.161694 4.521412 -8.029713 A
6652 A -2.931181 4.700644 -7.105529 A
6653 A -2.535534 4.464276 -6.257813 A
6654 A -2.109316 4.363026 -5.399659 A
6655 A -1.191696 4.037461 -5.375805 A
6656 A -0.576906 3.765148 -6.066624 A
6657 B 0.389398 3.620170 -6.159725 B
6658 B 1.244389 3.762978 -5.755380 B
6659 B 1.029098 3.253905 -4.963394 B
6660 B 0.100592 3.338537 -4.979610 B
6661 B -0.602096 2.737256 -4.670620 B
6662 B -1.293964 2.496549 -5.291779 B
6663 B -1.020159 2.134156 -6.108625 B
6664 A -0.684564 2.455483 -6.933620 A
6665 A -0.297148 2.697592 -7.784276 A
6666 A 0.642720 2.467055 -7.782997 A
6667 A 0.850520 1.566488 -7.413828 A
6668 A 0.583761 0.753075 -7.917651 A
6669 A -0.259732 0.915362 -7.349715 A
6670 A -6.623709 -7.592002 -1.451126 A
6671 A -6.167181 -6.810968 -1.673408 A
6672 A -6.551885 -5.937175 -1.610787 A
6673 A -7.330088 -5.423209 -1.953889 A
6674 A -8.093232 -5.637731 -2.479019 A
6675 A -8.549737 -6.389395 -1.982053 A
6676 B -8.605557 -7.071146 -1.325209 B
6677 B -8.271515 -7.907699 -1.056984 B
6678 B -8.454411 -8.590751 -0.415886 B
6679 B -8.364162 -8.458817 0.588858 B
6680 B -8.120829 -7.859032 1.327040 B
6681 B -7.761810 -7.795146 2.224916 B
6682 B -7.173670 -7.420032 2.877583 B
6683 A -6.706784 -6.793986 3.474849 A
6684 A -6.482849 -5.875419 3.691110 A
6685 A -6.964910 -5.662295 4.452868 A
6686 A -6.320129 -4.953480 4.574747 A
6687 A -5.635526 -4.420570 4.152349 A
6688 A -4.894189 -3.794491 4.224086 A
6689 A -2.546538 -11.881190 1.851557 A
6690 A -3.199423 -11.250140 2.163129 A
6691 A -3.325698 -11.643220 3.097508 A
6692 A -4.085342 -11.054320 2.990316 A
6693 A -4.644968 -10.723280 3.767076 A
6694 A -4.226552 -10.527580 4.648420 A
6695 B -3.977718 -10.157930 5.503038 B
6696 B -4.452280 -9.585524 6.071313 B
6697 B -5.278442 -9.154510 6.199217 B
6698 B -5.352187 -8.199338 6.411104 B
6699 B -6.001580 -8.717143 6.792304 B
6700 B -5.621091 -9.098042 7.605487 B
6701 B -4.767792 -9.175041 8.019742 B
6702 A -3.831536 -9.235703 8.130179 A
6703 A -3.216586 -9.882641 7.735769 A
6704 A -2.914971 -10.773080 7.429014 A
6705 A -2.597543 -11.700760 7.456984 A
6706 A -1.655677 -11.685850 7.568490 A
6707 A -0.793214 -12.038970 7.581450 A
6708 A 8.999479 -2.506412 -9.893681 A
6709 A 8.344400 -2.144294 -9.322353 A
6710 A 8.539627 -1.533006 -8.597840 A
6711 A 7.885884 -0.872520 -8.351890 A
6712 A 7.168002 -0.902747 -9.004755 A
6713 A 6.275792 -1.148990 -9.319609 A
6714 B 5.311017 -1.235948 -9.327516 B
6715 B 5.030089 -1.341692 -10.247720 B
6716 B 5.783963 -0.764012 -10.373860 B
6717 B 6.653739 -0.378457 -10.330390 B
6718 B 7.553097 -0.397931 -10.705480 B
6719 B 8.436126 -0.692925 -10.521270 B
6720 B 9.239996 -0.814868 -10.020430 B
6721 A 9.799003 -0.128440 -9.671543 A
6722 A 9.440216 0.212095 -10.466220 A
6723 A 9.031209 -0.044727 -11.299030 A
6724 A 8.130385 0.073933 -11.566970 A
6725 A 7.415213 0.467571 -12.099580 A
6726 A 6.941548 0.330602 -12.933520 A
6727 A 13.078970 8.380232 0.496468 A
6728 A 13.114890 7.631518 1.118231 A
6729 A 12.901720 7.115852 1.901225 A
6730 A 12.854700 7.124566 2.855907 A
6731 A 12.595620 6.934215 3.738801 A
6732 A 12.239420 6.419126 4.451707 A
6733 B 11.496610 6.284006 5.068380 B
6734 B 10.567960 6.491354 5.072371 B
6735 B 9.939771 6.673077 4.365223 B
6736 B 9.614186 6.459422 3.458813 B
6737 B 9.662048 6.607568 2.526559 B
6738 B 9.640265 6.570021 1.534622 B
6739 B 9.109364 6.257390 0.779666 B
6740 A 8.304206 6.508890 0.337008 A
6741 A 7.638566 6.691479 0.988956 A
6742 A 7.187503 6.422473 1.811457 A
6743 A 7.075875 5.506247 2.109864 A
6744 A 6.687324 4.782677 1.606082 A
6745 A 6.100043 4.328275 1.004029 A
6746 A -0.961779 -11.852840 -9.654608 A
6747 A -1.494097 -12.649880 -9.780485 A
6748 A -2.269588 -13.205070 -9.739168 A
6749 A -2.526879 13.384060 -10.527330 A
6750 A -2.237541 13.279430 -11.464700 A
6751 A -1.646277 12.837200 -12.096820 A
6752 B -1.362749 12.327630 -12.818310 B
6753 B -1.213707 12.218020 13.348190 B
6754 B -1.043698 12.622990 12.522580 B
6755 B -1.327096 13.383290 13.019960 B
6756 B -1.536253 -13.155930 -13.335760 B
6757 B -0.891463 -12.522620 -12.902930 B
6758 B -0.025615 -12.221650 -12.537860 B
6759 A 0.891826 -12.256290 -12.262780 A
6760 A 1.573072 -12.329530 -12.882530 A
6761 A 1.847754 -13.206800 -13.159250 A
6762 A 1.113986 13.332720 -13.425730 A
6763 A 0.170236 13.155640 -13.163160 A
6764 A -0.223875 -13.354060 -12.539360 A
6765 A 6.902197 -8.737669 -9.505947 A
6766 A 6.960835 -9.660063 -9.777377 A
6767 A 7.503696 -10.309060 -10.238280 A
6768 A 7.810709 -11.189180 -10.218690 A
6769 A 7.735133 -11.699890 -10.982000 A
6770 A 7.534371 -12.441990 -11.521250 A
6771 B 7.667367 -13.356840 -11.749930 B
6772 B 7.543272 -13.214380 -12.742250 B
6773 B 6.863138 13.311530 -12.410080 B
6774 B 6.669718 13.031120 -11.540210 B
6775 B 6.556511 12.226450 -11.037350 B
6776 B 7.419093 12.249950 -10.575130 B
6777 B 8.205247 12.789920 -10.634210 B
6778 A 8.998663 13.067950 -11.121980 A
6779 A 9.798861 12.710970 -10.756360 A
6780 A 9.723111 12.360820 -9.843554 A
6781 A 9.291348 11.922040 -9.083440 A
6782 A 8.967575 11.054140 -9.352422 A
6783 A 8.617276 10.371520 -9.932693 A
6784 A -6.812544 -12.403530 -6.986526 A
6785 A -7.277295 -11.605800 -6.678044 A
6786 A -7.976795 -10.986340 -6.945408 A
6787 A -8.509418 -10.468020 -7.606963 A
6788 A -8.558963 -9.991404 -8.409614 A
6789 A -8.050760 -10.143370 -9.239933 A
6790 B -7.717352 -10.952130 -9.635962 B
6791 B -7.241938 -11.415420 -8.917580 B
6792 B -6.965713 -12.118640 -8.377162 B
6793 B -6.083308 -12.455630 -8.494370 B
6794 B -5.150429 -12.540610 -8.870231 B
6795 B -4.856304 -13.326640 -9.310637 B
6796 B -4.975703 -13.071650 -10.270330 B
6797 A -4.225935 -13.211560 -10.812150 A
6798 A -3.831484 13.010500 -10.820880 A
6799 A -3.787393 13.244220 -11.750630 A
6800 A -4.061285 -13.226340 -12.486840 A
6801 A -4.527405 -12.508410 -12.048990 A
6802 A -4.875405 -12.202150 -11.181280 A
6803 A 3.830519 13.170190 1.815375 A
6804 A 3.907333 12.961910 2.759879 A
6805 A 4.554178 -13.383000 2.958832 A
6806 A 5.220634 -12.762770 3.427543 A
6807 A 5.995739 -12.450920 2.891624 A
6808 A 6.400909 -13.340210 2.878251 A
6809 B 6.094308 13.028540 3.474815 B
6810 B 6.215609 -13.327550 4.057307 B
6811 B 5.707572 -13.161090 4.904542 B
6812 B 5.763215 -12.143160 4.641037 B
6813 B 6.699146 -11.866400 4.702539 B
6814 B 7.033007 -12.644170 4.224071 B
6815 B 7.308756 13.516770 4.185575 B
6816 A 6.725206 12.838640 4.471022 A
6817 A 5.765244 12.873700 4.647822 A
6818 A 4.993875 12.352140 4.649248 A
6819 A 4.029657 12.335270 4.655465 A
6820 A 3.439765 11.521830 4.474732 A
6821 A 3.794682 11.927420 3.691384 A
6822 A 10.309430 9.492426 4.495659 A
6823 A 9.692637 10.166770 4.776199 A
6824 A 9.582378 10.789820 5.544466 A
6825 A 9.632371 11.156610 6.455628 A
6826 A 9.178229 11.679130 7.105284 A
6827 A 8.393970 11.598760 7.609602 A
6828 B 7.550718 11.390750 8.001306 B
6829 B 6.719438 10.862120 8.006940 B
6830 B 6.440797 11.197100 7.104457 B
6831 B 5.564055 11.285250 6.772774 B
6832 B 5.099561 11.508740 7.590659 B
6833 B 5.698606 12.038710 8.087049 B
6834 B 5.734955 11.496740 8.813509 B
6835 A 6.184575 11.219350 9.627142 A
6836 A 6.422367 11.930850 10.205230 A
6837 A 6.686229 12.722320 9.706542 A
6838 A 7.241410 13.134650 10.423560 A
6839 A 7.991578 -13.502740 10.812030 A
6840 A 8.261573 -12.988670 11.553740 A
6841 A 7.079459 2.715785 -1.613071 A
6842 A 6.854618 3.195287 -2.437366 A
6843 A 6.789287 3.893226 -3.074605 A
6844 A 6.905086 3.518556 -3.959708 A
6845 A 7.037853 3.636088 -4.899880 A
6846 A 6.809239 4.202560 -5.653181 A
6847 B 6.350994 4.792239 -6.257757 B
6848 B 6.192076 4.236623 -7.051583 B
6849 B 6.666633 3.419981 -7.193739 B
6850 B 6.188344 2.942455 -6.572090 B
6851 B 6.035325 2.105905 -6.158168 B
6852 B 6.914395 2.004313 -5.765297 B
6853 B 7.681704 1.412388 -5.583388 B
6854 A 8.019369 1.451277 -6.472610 A
6855 A 7.726295 1.863695 -7.291219 A
6856 A 7.639237 2.795467 -7.431963 A
6857 A 8.168029 3.478885 -6.984802 A
6858 A 8.642611 4.285056 -6.995949 A
6859 A 8.419585 4.802163 -7.727522 A
6860 A -12.875990 1.405954 4.886573 A
6861 A -13.257300 1.446332 5.768665 A
6862 A -13.149530 2.333952 6.102995 A
6863 A -12.209910 2.584920 6.135692 A
6864 A -11.571090 1.969611 5.891838 A
6865 A -10.735260 1.767664 5.445968 A
6866 B -10.037930 1.188060 5.077832 B
6867 B -9.876147 0.253227 4.862261 B
6868 B -9.353861 -0.099334 5.572153 B
6869 B -8.436478 -0.288061 5.713858 B
6870 B -7.835901 -0.980426 5.901319 B
6871 B -7.043093 -1.525625 5.915724 B
6872 B -6.874215 -0.917588 5.148257 B
6873 A -6.775379 -0.333569 5.921409 A
6874 A -7.495448 0.019615 6.448835 A
6875 A -7.547086 0.048915 7.388435 A
6876 A -7.383836 0.700509 8.093341 A
6877 A -6.574450 0.760208 8.644157 A
6878 A -6.520027 1.425719 9.303827 A
6879 A -11.731300 -9.834146 3.860650 A
6880 A -11.515050 -10.482490 3.189611 A
6881 A -12.192550 -10.162610 2.598647 A
6882 A -13.077590 -10.419080 2.902190 A
6883 A -12.807510 -10.702230 3.777617 A
6884 A -12.652680 -10.658890 4.750431 A
6885 B -12.142060 -9.927809 5.092657 B
6886 B -12.271660 -9.016494 4.848470 B
6887 B -12.308090 -8.181131 5.321601 B
6888 B -12.254770 -7.532373 6.019697 B
6889 B -11.669760 -8.251796 6.240275 B
6890 B -10.787570 -8.621070 6.229150 B
6891 B -10.296520 -8.362536 7.037004 B
6892 A -9.800153 -8.572311 7.840441 A
6893 A -10.608190 -8.205780 8.197746 A
6894 A -11.500890 -8.022644 7.884240 A
6895 A -11.525380 -7.212620 8.399643 A
6896 A -11.562810 -6.291576 8.172332 A
6897 A -11.810100 -5.448523 7.789281 A
6898 A -11.909280 -3.589516 -1.753129 A
6899 A -11.587100 -4.202742 -2.444828 A
6900 A -10.854170 -3.850621 -2.965914 A
6901 A -10.343420 -3.005625 -2.942850 A
6902 A -10.734450 -2.509782 -3.657045 A
6903 A -11.531670 -2.180701 -3.261692 A
6904 B -12.363540 -1.713428 -3.456556 B
6905 B -12.299940 -0.878975 -3.004037 B
6906 B -11.691080 -0.208633 -3.311811 B
6907 B -10.819750 0.153273 -3.145070 B
6908 B -10.034420 -0.177688 -2.629949 B
6909 B -10.059000 -0.370753 -1.690250 B
6910 B -9.580716 -0.806331 -0.975164 B
6911 A -9.170875 -1.540406 -0.490133 A
6912 A -8.927340 -2.230771 0.110559 A
6913 A -8.028215 -1.970947 0.018167 A
6914 A -7.374024 -1.296813 -0.162030 A
6915 A -7.702620 -0.633811 -0.716888 A
6916 A -7.107196 -0.314329 -1.424609 A
6917 A 5.452600 -1.555158 -12.316010 A
6918 A 5.621186 -0.866668 -12.961500 A
6919 A 6.363914 -0.579583 -13.521530 A
6920 A 5.868664 -0.314765 12.790310 A
6921 A 5.986839 0.628599 12.998030 A
6922 A 5.539808 1.352310 13.484910 A
6923 B 4.903506 0.699168 13.548360 B
6924 B 4.675880 -0.155702 13.210810 B
6925 B 4.204267 -0.947968 13.456480 B
6926 B 4.177054 -0.778893 -12.645710 B
6927 B 3.572224 -0.097234 -12.870370 B
6928 B 2.702246 0.246417 -12.860510 B
6929 B 2.161834 -0.472306 -12.712210 B
6930 A 2.130710 -1.396288 -12.255850 A
6931 A 1.867740 -2.279402 -12.614410 A
6932 A 1.042876 -2.636056 -12.844640 A
6933 A 0.680848 -2.646756 13.400930 A
6934 A 1.403445 -2.508564 12.742420 A
6935 A 1.662720 -3.214504 12.135960 A
6936 A 8.936495 0.914189 -8.062900 A
6937 A 9.849053 0.803921 -7.949708 A
6938 A 10.669910 0.811869 -7.483176 A
6939 A 10.445220 1.659074 -7.086055 A
6940 A 9.585523 1.965917 -6.745613 A
6941 A 9.710529 2.346239 -5.917909 A
6942 B 9.444706 2.881843 -5.174941 B
6943 B 9.465229 3.650343 -5.691503 B
6944 B 10.421800 3.696424 -5.630283 B
6945 B 11.351020 3.743612 -5.643247 B
6946 B 11.821060 4.046100 -4.816485 B
6947 B 12.310390 3.262434 -4.980318 B
6948 B 12.431610 2.455947 -5.542813 B
6949 A 11.913520 2.043822 -4.785560 A
6950 A 12.168100 1.069894 -4.809551 A
6951 A 12.063850 0.556747 -5.606694 A
6952 A 12.231660 0.033376 -6.390791 A
6953 A 12.107030 -0.369473 -7.262858 A
6954 A 11.738080 0.337758 -7.817394 A
6955 A -1.837137 4.624245 -1.605333 A
6956 A -1.622225 4.038108 -2.286350 A
6957 A -1.087628 3.454671 -2.821600 A
6958 A -0.260547 3.331146 -3.321297 A
6959 A -0.498752 4.186622 -3.685275 A
6960 A -1.376784 4.407418 -3.330370 A
6961 B -2.297459 4.459293 -2.990203 B
6962 B -3.146673 4.820271 -2.983214 B
6963 B -4.046793 4.580779 -2.870891 B
6964 B -3.810140 3.700655 -2.494901 B
6965 B -4.505826 4.050461 -1.846646 B
6966 B -5.335753 4.260006 -2.244446 B
6967 B -5.677205 3.503564 -1.813039 B
6968 A -4.997417 3.174005 -1.236186 A
6969 A -4.555984 3.193555 -0.378364 A
6970 A -3.670569 2.962640 -0.445804 A
6971 A -3.028899 2.591432 0.289258 A
6972 A -3.538792 2.613080 1.100032 A
6973 A -3.860389 2.612038 1.977498 A
6974 A 12.925080 -11.536220 -10.562810 A
6975 A 13.010050 -11.899410 -9.704262 A
6976 A 13.429850 -11.380610 -9.001574 A
6977 A -13.482880 -10.874910 -8.197639 A
6978 A -13.536890 -10.620640 -7.259039 A
6979 A -13.010380 -10.114330 -6.615840 A
6980 B -12.305810 -9.588442 -7.032094 B
6981 B -12.086060 -8.772361 -7.448181 B
6982 B -11.213290 -8.368757 -7.295933 B
6983 B -10.396660 -7.826575 -7.271289 B
6984 B -11.174740 -7.316507 -7.553978 B
6985 B -11.962310 -7.362294 -8.074352 B
6986 B -12.500500 -8.123596 -8.324555 B
6987 A -13.384550 -8.088708 -8.670776 A
6988 A 12.877610 -8.403026 -8.908712 A
6989 A 12.055610 -8.898051 -8.956705 A
6990 A 11.584520 -9.716160 -9.125667 A
6991 A 10.841430 -10.252060 -9.443799 A
6992 A 10.018880 -10.166950 -9.944844 A
6993 A 9.298983 -11.081900 -5.603168 A
6994 A 9.629330 -10.400970 -5.012036 A
6995 A 9.926522 -9.538350 -4.782726 A
6996 A 9.216140 -9.672088 -4.130766 A
6997 A 8.572371 -10.155300 -3.625392 A
6998 A 7.998507 -10.822570 -3.181546 A
6999 B 8.915995 -10.895410 -2.935749 B
7000 B 9.734770 -11.375850 -2.953230 B
7001 B 10.059800 -12.247280 -3.224114 B
7002 B 10.689280 -12.401330 -3.932749 B
7003 B 10.154500 -13.206190 -3.904934 B
7004 B 9.628326 13.272560 -4.471762 B
7005 B 9.100609 12.808500 -5.105666 B
7006 A 9.033139 11.879150 -5.377041 A
7007 A 9.950999 12.079100 -5.568108 A
7008 A 10.857740 12.136960 -5.332725 A
7009 A 11.123040 12.109440 -4.419405 A
7010 A 11.237300 12.667020 -3.650646 A
7011 A 11.460890 12.504910 -2.736793 A
7012 A 7.818200 -3.458742 -3.146974 A
7013 A 7.711614 -3.509639 -4.079655 A
7014 A 7.228393 -4.216987 -4.485276 A
7015 A 6.964616 -4.987843 -4.982987 A
7016 A 7.033422 -5.919994 -5.257370 A
7017 A 6.797327 -6.844305 -5.392979 A
7018 B 6.367756 -7.646955 -5.816618 B
7019 B 5.607708 -8.017005 -6.291965 B
7020 B 5.174622 -8.181449 -7.113066 B
7021 B 5.438565 -7.548815 -7.758499 B
7022 B 5.835148 -6.689591 -7.901473 B
7023 B 6.588552 -6.128286 -7.690973 B
7024 B 6.316094 -5.226599 -7.493430 B
7025 A 6.024589 -4.318262 -7.260899 A
7026 A 5.277526 -4.304754 -7.813335 A
7027 A 5.627865 -4.597809 -8.682254 A
7028 A 5.526365 -5.128757 -9.511705 A
7029 A 4.823444 -4.421631 -9.626654 A
7030 A 4.005221 -4.418625 -10.147370 A
7031 A 1.466900 -10.514810 3.031879 A
7032 A 1.087759 -10.976030 2.294547 A
7033 A 1.054803 -11.377520 1.432703 A
7034 A 0.442630 -10.687360 1.417902 A
7035 A -0.035468 -10.140030 2.039587 A
7036 A -0.927252 -10.033660 1.827986 A
7037 B -1.868185 -9.964899 1.452181 B
7038 B -2.778172 -10.042950 1.475312 B
7039 B -2.636655 -9.105083 1.198334 B
7040 B -2.555132 -8.511911 0.362079 B
7041 B -2.215708 -8.430242 -0.541274 B
7042 B -1.309582 -8.008400 -0.347845 B
7043 B -1.055874 -7.013751 -0.182089 B
7044 A -1.226650 -6.299313 -0.753316 A
7045 A -1.600382 -5.381655 -0.735772 A
7046 A -1.967014 -4.517370 -0.450875 A
7047 A -2.529595 -3.863904 -0.896948 A
7048 A -3.353239 -3.585351 -0.473713 A
7049 A -3.584181 -3.519741 0.479631 A
7050 A -1.936252 11.524960 -11.776200 A
7051 A -2.331994 11.700720 -12.599040 A
7052 A -2.685615 10.831750 -12.652490 A
7053 A -2.288978 9.964191 -12.498860 A
7054 A -1.894682 9.110818 -12.262180 A
7055 A -1.696813 8.330926 -12.779860 A
7056 B -2.429557 8.828572 -13.123240 B
7057 B -2.895708 9.641819 -13.292400 B
7058 B -2.908509 10.169310 12.955640 B
7059 B -3.231289 9.557727 12.226240 B
7060 B -3.758482 9.127625 12.830510 B
7061 B -4.692761 9.126349 12.852740 B
7062 B -5.384396 9.075967 13.523960 B
7063 A -6.031907 8.896520 -12.912450 A
7064 A -6.072634 8.241795 -12.244060 A
7065 A -6.152861 9.223915 -11.944570 A
7066 A -5.487840 9.961266 -11.943900 A
7067 A -5.173955 10.146140 -12.810600 A
7068 A -5.130264 10.118040 13.321500 A
7069 A 0.928519 6.972196 -6.611621 A
7070 A 1.611908 7.597779 -6.712420 A
7071 A 2.267216 8.156023 -7.064474 A
7072 A 2.863302 8.815939 -6.657751 A
7073 A 3.372751 9.561942 -6.934446 A
7074 A 3.189021 10.063000 -7.756659 A
7075 B 2.935234 10.877520 -8.140733 B
7076 B 2.504804 11.614150 -8.579070 B
7077 B 2.626196 12.370180 -7.939739 B
7078 B 2.388665 12.986940 -7.257971 B
7079 B 2.859869 -13.299140 -7.208716 B
7080 B 3.466106 -12.653040 -6.749928 B
7081 B 3.706213 -11.845740 -6.340817 B
7082 A 4.563402 -11.946140 -6.771082 A
7083 A 5.216401 -11.505600 -7.417437 A
7084 A 5.600129 -11.383790 -8.271973 A
7085 A 5.622084 -11.942000 -9.047440 A
7086 A 6.135967 -12.199490 -9.804825 A
7087 A 6.717322 -12.812630 -10.237570 A
7088 A -11.291170 6.755190 6.168556 A
7089 A -11.781090 6.367081 5.455792 A
7090 A -11.819040 6.511453 4.511760 A
7091 A -11.971110 6.994877 3.679767 A
7092 A -12.712980 7.629045 3.718234 A
7093 A -13.421850 6.984607 3.725798 A
7094 B -13.006070 6.908754 2.856844 B
7095 B -12.293320 6.469779 2.405617 B
7096 B -11.515790 5.947660 2.240875 B
7097 B -10.663000 5.573923 1.899405 B
7098 B -9.946824 5.239232 1.364004 B
7099 B -9.487062 4.774226 0.667338 B
7100 B -10.283940 4.291198 0.992167 B
7101 A -10.872870 4.352381 0.226891 A
7102 A -10.298810 3.756596 -0.196092 A
7103 A -10.524930 2.871034 -0.001932 A
7104 A -10.359890 2.067704 0.531723 A
7105 A -9.950406 1.374391 1.052972 A
7106 A -10.263700 0.706657 1.670246 A
7107 A 12.470070 1.403736 -2.122042 A
7108 A 12.184980 1.456974 -1.193167 A
7109 A 11.668910 2.197770 -0.873082 A
7110 A 11.742860 2.541527 -0.001324 A
7111 A 11.242470 2.945058 0.737050 A
7112 A 10.474290 3.107747 1.283137 A
7113 B 9.625484 2.762634 1.063444 B
7114 B 8.693437 2.931757 0.945981 B
7115 B 7.957746 3.322136 0.427003 B
7116 B 7.620175 3.865412 -0.323522 B
7117 B 6.733391 3.498590 -0.121056 B
7118 B 6.677891 3.718119 -1.024664 B
7119 B 7.115899 4.558495 -1.310904 B
7120 A 7.826127 5.046526 -1.742046 A
7121 A 7.696431 5.987899 -1.610678 A
7122 A 7.400284 5.940560 -0.692747 A
7123 A 6.913885 5.624642 0.054604 A
7124 A 6.750278 4.718856 -0.037195 A
7125 A 5.921532 4.159766 -0.099319 A
7126 A 8.321187 -11.076000 4.509382 A
7127 A 8.754335 -11.910630 4.119997 A
7128 A 9.244084 -12.304000 3.395547 A
7129 A 9.336554 -12.830620 2.632446 A
7130 A 8.863868 -13.247520 1.915189 A
7131 A 7.942270 -13.476110 1.770054 A
7132 B 7.567032 -12.678070 2.239151 B
7133 B 6.982417 -12.019730 2.578835 B
7134 B 6.701148 -11.111580 2.778082 B
7135 B 6.503452 -10.298480 2.326560 B
7136 B 6.545588 -9.454562 1.847078 B
7137 B 6.663498 -9.431857 0.947951 B
7138 B 6.696283 -9.931176 0.103008 B
7139 A 7.145179 -9.234015 -0.480125 A
7140 A 7.925869 -8.601315 -0.721403 A
7141 A 8.603431 -7.801303 -0.680811 A
7142 A 8.242037 -8.122179 -1.585160 A
7143 A 8.137973 -8.936405 -2.239777 A
7144 A 7.397406 -9.597578 -2.051335 A
7145 A -8.545620 -13.276510 5.970084 A
7146 A -8.693713 -12.897420 5.097784 A
7147 A -9.154409 13.515700 4.563173 A
7148 A -9.122817 12.643450 5.032722 A
7149 A -8.861158 12.427830 5.931265 A
7150 A -8.680265 12.002030 6.756760 A
7151 B -8.508835 12.511640 7.588041 B
7152 B -8.336535 12.403650 8.543028 B
7153 B -7.653883 12.763170 9.121172 B
7154 B -7.189130 12.979670 9.923952 B
7155 B -6.708598 -13.274180 10.060630 B
7156 B -6.575562 -12.607260 10.780010 B
7157 B -5.690755 -12.891820 10.903340 B
7158 A -5.292585 13.529940 10.353630 A
7159 A -4.916200 13.524260 9.464767 A
7160 A -5.183485 -13.411290 8.537593 A
7161 A -5.915575 -12.786270 8.767413 A
7162 A -5.712995 -12.559810 9.723449 A
7163 A -4.895782 -12.445820 10.233700 A
7164 A -10.302710 -9.411892 -11.917490 A
7165 A -10.200680 -8.688455 -12.553020 A
7166 A -9.874230 -7.922866 -12.990110 A
7167 A -9.211941 -7.701250 13.457910 A
7168 A -8.576036 -8.120664 12.861790 A
7169 A -7.695893 -8.244714 12.569860 A
7170 B -6.822716 -7.891583 12.779440 B
7171 B -6.726308 -7.038207 13.231380 B
7172 B -6.958999 -6.112911 13.196610 B
7173 B -6.711062 -5.306333 -13.436890 B
7174 B -6.909609 -4.683908 -12.667230 B
7175 B -7.410320 -4.851253 -11.850850 B
7176 B -7.938775 -5.561329 -11.442260 B
7177 A -8.193927 -4.880733 -10.798680 A
7178 A -8.955022 -5.391027 -10.466840 A
7179 A -9.843321 -5.260260 -10.144780 A
7180 A -10.354290 -4.576939 -10.578220 A
7181 A -10.822020 -3.856462 -10.983790 A
7182 A -11.396070 -3.087724 -10.978880 A
7183 A 9.467649 -11.478850 12.611500 A
7184 A 10.257080 -11.078540 12.315070 A
7185 A 11.186140 -11.214960 12.401840 A
7186 A 11.969360 -11.557620 12.888350 A
7187 A 12.568940 -12.271170 13.058190 A
7188 A 12.601880 -12.580600 12.168380 A
7189 B 12.334440 -13.355740 11.580370 B
7190 B 12.035150 12.780250 11.172820 B
7191 B 11.895150 11.972300 11.649230 B
7192 B 11.361000 11.565160 10.983580 B
7193 B 11.571870 11.739990 10.106140 B
7194 B 11.920460 11.255530 9.347955 B
7195 B 12.751170 11.184370 8.920755 B
7196 A 13.135440 10.945200 9.754280 A
7197 A 13.429030 10.148200 9.344861 A
7198 A 13.021400 9.327960 9.104748 A
7199 A 13.319740 9.708792 8.275400 A
7200 A -12.920180 9.933303 8.022217 A
7201 A -12.735260 10.866640 7.864860 A
7202 A -5.708447 -2.040274 12.356350 A
7203 A -5.479121 -1.278234 11.861430 A
7204 A -5.181720 -0.529532 11.358160 A
7205 A -4.394692 -0.036657 11.138920 A
7206 A -3.609844 0.480693 10.990770 A
7207 A -2.752792 0.237900 10.626840 A
7208 B -3.023044 -0.264412 9.871654 B
7209 B -3.383402 -0.757303 9.113314 B
7210 B -4.043515 -0.815847 8.385571 B
7211 B -4.593365 -1.555966 8.629912 B
7212 B -4.833034 -2.053627 9.417472 B
7213 B -5.556317 -2.444267 9.932351 B
7214 B -6.011476 -2.314754 10.732650 B
7215 A -6.212046 -1.403825 10.914930 A
7216 A -6.032789 -1.132853 9.974715 A
7217 A -5.454864 -1.120675 9.219708 A
7218 A -5.643977 -0.182640 9.081219 A
7219 A -5.287249 0.687999 9.395866 A
7220 A -5.249228 0.615456 10.338700 A
7221 A 3.310719 7.029741 -5.930574 A
7222 A 4.128675 7.359646 -6.284298 A
7223 A 4.807151 8.019362 -6.302868 A
7224 A 5.556261 7.640188 -6.788672 A
7225 A 5.822616 6.921674 -7.358822 A
7226 A 5.444203 6.086584 -7.642461 A
7227 B 4.678666 5.667372 -8.020095 B
7228 B 4.273311 5.667605 -8.875557 B
7229 B 3.580658 5.873019 -9.508801 B
7230 B 4.103291 6.413342 -10.136840 B
7231 B 4.835152 5.826311 -10.239040 B
7232 B 5.068944 4.949710 -9.955351 B
7233 B 5.542723 4.227771 -9.585369 B
7234 A 6.232818 4.096183 -8.917029 A
7235 A 6.885655 4.325895 -8.253519 A
7236 A 6.751286 5.212279 -8.624075 A
7237 A 6.621745 6.148990 -8.494595 A
7238 A 6.151850 6.962694 -8.540219 A
7239 A 5.473948 7.581628 -8.814464 A
7240 A -10.649170 -6.452592 -10.712500 A
7241 A -11.386060 -7.016232 -10.525430 A
7242 A -12.201420 -7.428829 -10.270600 A
7243 A -12.937990 -7.436101 -9.639192 A
7244 A 13.262220 -7.132903 -9.451907 A
7245 A 12.415240 -6.773314 -9.101828 A
7246 B 12.545000 -7.114118 -8.227130 B
7247 B 13.364580 -7.297187 -7.765992 B
7248 B -13.401760 -7.895835 -6.963599 B
7249 B -13.538780 -8.715069 -6.521514 B
7250 B 12.812540 -9.135378 -6.922913 B
7251 B 13.241910 -8.746527 -7.705388 B
7252 B -13.161910 -9.057012 -8.277780 B
7253 A -12.861630 -9.953606 -8.693134 A
7254 A -12.546100 -10.631330 -9.287748 A
7255 A -12.696490 -11.603170 -9.536615 A
7256 A -13.106240 -12.225470 -10.105500 A
7257 A -13.123810 -13.220920 -9.813778 A
7258 A -12.940320 13.304620 -8.998585 A
7259 A 2.900039 -0.787218 2.946042 A
7260 A 2.768706 -1.677741 2.559968 A
7261 A 2.204182 -2.351521 2.189572 A
7262 A 1.711100 -2.096913 1.440212 A
7263 A 1.196463 -1.957500 0.627049 A
7264 A 1.472713 -1.195677 0.135195 A
7265 B 2.359392 -1.378837 -0.184116 B
7266 B 3.200723 -1.644163 -0.543523 B
7267 B 3.934723 -2.200302 -0.318701 B
7268 B 4.696368 -1.666501 -0.108363 B
7269 B 5.231683 -0.886307 -0.080431 B
7270 B 5.292196 -0.598463 -1.003131 B
7271 B 5.878862 -1.028095 -1.650249 B
7272 A 5.970363 -1.428665 -2.487235 A
7273 A 5.733968 -1.979778 -3.181277 A
7274 A 5.478703 -1.501113 -3.988364 A
7275 A 5.631487 -1.763819 -4.934692 A
7276 A 5.517281 -0.917208 -5.419542 A
7277 A 6.307809 -0.749126 -4.750146 A
7278 A 8.619448 -1.185712 -12.098060 A
7279 A 8.211088 -0.616131 -12.761700 A
7280 A 7.811910 -0.309521 13.485640 A
7281 A 7.280404 -0.696699 12.786210 A
7282 A 7.933667 -1.377666 12.797860 A
7283 A 8.021374 -1.567755 11.857780 A
7284 B 7.595510 -1.926474 11.106360 B
7285 B 7.604612 -2.858425 11.447940 B
7286 B 7.007927 -3.468272 10.987320 B
7287 B 7.702208 -4.143406 10.966010 B
7288 B 7.423746 -4.268795 10.076100 B
7289 B 6.901472 -3.525641 9.777514 B
7290 B 6.625199 -2.679614 10.207730 B
7291 A 5.857025 -2.140880 10.146330 A
7292 A 5.425035 -1.647020 10.868780 A
7293 A 6.012488 -1.008014 10.485050 A
7294 A 6.598772 -1.362550 9.761820 A
7295 A 7.118965 -0.842741 9.091420 A
7296 A 6.722616 -0.027082 8.772341 A
7297 A -10.351000 -3.670518 12.725700 A
7298 A -10.995960 -3.089334 12.284250 A
7299 A -10.909940 -2.469873 11.468020 A
7300 A -11.145370 -1.755581 10.912950 A
7301 A -11.283850 -1.204781 10.138800 A
7302 A -11.654980 -0.998471 9.286506 A
7303 B -11.960430 -0.355996 9.902363 B
7304 B -11.552130 0.484951 9.795194 B
7305 B -10.901330 0.319838 10.476680 B
7306 B -10.217370 -0.300635 10.492950 B
7307 B -9.651546 -0.927923 10.025150 B
7308 B -8.827308 -1.404938 9.772131 B
7309 B -8.629144 -1.512411 8.864351 B
7310 A -8.974627 -0.722140 8.426283 A
7311 A -8.732298 0.249870 8.568443 A
7312 A -8.437299 -0.051202 9.427561 A
7313 A -8.044090 -0.664470 10.069320 A
7314 A -7.685963 -0.993204 10.903160 A
7315 A -7.386271 -1.770422 11.386890 A
7316 A -13.402070 -12.687670 -0.012960 A
7317 A -12.952250 -12.448450 0.823067 A
7318 A -12.231610 -11.960030 1.090322 A
7319 A -12.870220 -11.385370 0.687587 A
7320 A -13.488590 -11.300400 -0.033238 A
7321 A 13.464710 -11.240340 -0.926320 A
7322 B -13.545520 -11.859680 -1.716018 B
7323 B -13.191010 -12.267600 -0.951809 B
7324 B -12.238310 -12.513210 -0.822460 B
7325 B -11.411480 -12.818350 -1.268253 B
7326 B -11.909700 -13.531500 -0.860775 B
7327 B -12.834960 13.311190 -0.844165 B
7328 B -13.369540 12.865120 -1.495828 B
7329 A -13.167440 12.048440 -1.052653 A
7330 A -12.258440 12.121070 -1.289367 A
7331 A -11.422690 12.609770 -1.208822 A
7332 A -11.203580 11.741980 -0.916573 A
7333 A -11.460690 10.980650 -0.401480 A
7334 A -12.460960 10.809450 -0.396305 A
7335 A 12.949280 -12.370130 4.717475 A
7336 A 12.476230 -13.158640 4.370141 A
7337 A 12.807890 13.074020 4.154394 A
7338 A -13.431660 13.345560 3.828784 A
7339 A 13.037750 13.383530 3.110415 A
7340 A 12.519150 -13.411250 2.387508 A
7341 B 12.215100 13.318650 1.563833 B
7342 B 12.399710 13.169450 0.636597 B
7343 B 13.150460 -13.283630 0.583045 B
7344 B 12.434010 -12.879910 1.077524 B
7345 B 11.516770 -12.742740 0.936163 B
7346 B 10.731800 -13.284560 0.973415 B
7347 B 10.172780 13.194300 1.437036 B
7348 A 10.381880 12.253250 1.318152 A
7349 A 9.904308 11.382180 1.277948 A
7350 A 10.421430 11.273280 0.435377 A
7351 A 10.080120 11.372830 -0.506538 A
7352 A 9.697327 12.171620 -0.841700 A
7353 A 8.993877 12.378950 -1.309535 A
7354 A 10.537410 -10.540660 -1.486137 A
7355 A 11.019350 -10.969060 -2.234939 A
7356 A 11.222850 -11.067230 -3.161021 A
7357 A 11.549080 -10.172910 -3.347484 A
7358 A 11.119010 -9.593238 -2.749695 A
7359 A 10.659820 -8.959816 -2.186919 A
7360 B 10.527170 -8.710793 -1.179487 B
7361 B 10.500500 -8.919191 -0.237092 B
7362 B 9.847598 -9.167818 0.478938 B
7363 B 9.388338 -9.949696 0.831520 B
7364 B 8.589230 -9.670044 1.065887 B
7365 B 9.154267 -9.236874 1.615245 B
7366 B 10.069230 -9.395554 1.829535 B
7367 A 11.051780 -9.199722 1.854894 A
7368 A 11.754800 -8.940164 2.525834 A
7369 A 12.188560 -9.807624 2.348385 A
7370 A 12.228740 -10.457400 1.686069 A
7371 A 11.236130 -10.555050 1.613057 A
7372 A 10.277200 -10.595190 1.266294 A
7373 A 4.176549 -10.449620 12.747190 A
7374 A 4.751158 -10.721900 11.995800 A
7375 A 5.315118 -11.122800 12.650760 A
7376 A 6.284925 -11.138580 12.697050 A
7377 A 7.220068 -10.881650 12.859670 A
7378 A 7.327846 -9.948484 13.012230 A
7379 B 6.406302 -9.649127 12.929090 B
7380 B 5.866327 -9.968410 12.213050 B
7381 B 5.821680 -10.234980 11.291090 B
7382 B 5.932562 -10.140450 10.356220 B
7383 B 6.451573 -10.247520 9.573165 B
7384 B 6.923280 -9.410434 9.335944 B
7385 B 6.816689 -8.452546 9.240123 B
7386 A 6.859129 -8.157063 8.364371 A
7387 A 7.028532 -7.551413 7.602511 A
7388 A 7.472960 -7.195602 6.821015 A
7389 A 7.658385 -6.259155 6.652153 A
7390 A 7.223168 -6.357622 7.510205 A
7391 A 6.840869 -5.517480 7.747605 A
7392 A -6.478246 -5.051105 -10.699120 A
7393 A -6.851250 -5.699739 -11.319670 A
7394 A -6.996022 -6.181371 -12.152950 A
7395 A -7.555172 -6.894402 -11.892210 A
7396 A -7.905917 -7.543107 -11.308910 A
7397 A -8.555337 -8.100121 -10.895760 A
7398 B -9.446321 -8.248034 -11.280810 B
7399 B -9.501099 -7.554497 -11.983940 B
7400 B -9.269714 -6.795763 -12.499340 B
7401 B -8.602708 -6.172804 -12.713820 B
7402 B -7.809776 -5.583542 -12.856000 B
7403 B -7.919086 -5.228233 13.382240 B
7404 B -8.656020 -4.874384 12.847310 B
7405 A -9.043655 -4.941871 11.967800 A
7406 A -8.678436 -5.818967 11.733370 A
7407 A -8.716227 -6.761831 11.530950 A
7408 A -8.735115 -7.690637 11.781930 A
7409 A -9.486618 -7.984763 11.271990 A
7410 A -9.510358 -8.036184 10.320540 A
7411 A -9.558383 -2.465496 -12.986270 A
7412 A -8.620054 -2.331586 -13.313300 A
7413 A -7.937446 -2.109119 13.156420 A
7414 A -7.415899 -1.620250 12.524460 A
7415 A -7.803038 -0.743367 12.317920 A
7416 A -8.765139 -0.613651 12.357620 A
7417 B -9.191352 -0.148736 13.104830 B
7418 B -10.141730 -0.160879 12.972360 B
7419 B -11.048400 -0.491285 12.921460 B
7420 B -11.947860 -0.376160 12.789540 B
7421 B -12.037150 0.221448 13.517180 B
7422 B -11.306510 0.686107 -13.169720 B
7423 B -10.375590 0.784648 -13.254300 B
7424 A -9.702768 1.023524 13.200080 A
7425 A -10.311410 0.822598 12.541810 A
7426 A -10.836000 1.458378 13.111230 A
7427 A -10.851780 1.932865 -13.113770 A
7428 A -10.265550 1.642110 -12.397090 A
7429 A -9.620157 1.017652 -12.058240 A
7430 A -4.728844 4.318862 -12.156490 A
7431 A -5.019787 5.177058 -12.500950 A
7432 A -5.037752 6.033515 -12.871620 A
7433 A -4.321191 6.147317 -12.133580 A
7434 A -3.586042 6.591481 -11.581040 A
7435 A -3.523568 7.442465 -11.215180 A
7436 B -4.424272 7.419596 -10.813430 B
7437 B -5.246518 6.914767 -10.490570 B
7438 B -6.023775 6.352414 -10.670640 B
7439 B -6.561164 6.402632 -11.472520 B
7440 B -6.037369 6.629826 -12.220250 B
7441 B -5.270481 7.101925 -12.643460 B
7442 B -5.534727 7.586095 -13.438820 B
7443 A -5.877476 6.667976 13.426440 A
7444 A -6.414857 6.185119 12.825550 A
7445 A -6.421616 5.965810 11.877790 A
7446 A -7.157679 5.867775 11.216030 A
7447 A -7.724275 6.513240 10.875670 A
7448 A -7.542632 6.903721 10.027070 A
7449 A -0.513879 9.270120 -0.502046 A
7450 A -0.841991 9.814230 0.169388 A
7451 A -0.760941 9.086367 0.795222 A
7452 A -0.139490 8.352563 0.890735 A
7453 A 0.798438 8.142718 0.993116 A
7454 A 1.503795 7.881717 0.402269 A
7455 B 1.004321 7.190279 -0.027467 B
7456 B 1.109586 7.616504 -0.862271 B
7457 B 1.805959 8.291540 -0.750465 B
7458 B 2.624970 8.783225 -0.901973 B
7459 B 3.431512 9.271745 -1.053849 B
7460 B 3.956630 9.818013 -0.480648 B
7461 B 3.617251 9.163775 0.113761 B
7462 A 3.302459 8.278739 -0.013258 A
7463 A 2.994919 7.490720 -0.553187 A
7464 A 2.610171 7.190646 -1.401499 A
7465 A 1.790855 7.466339 -1.771698 A
7466 A 0.968659 7.953163 -1.952965 A
7467 A 0.370436 8.714366 -1.980268 A
7468 A 7.055449 1.718470 -12.916240 A
7469 A 7.113018 2.094017 -12.032740 A
7470 A 6.853649 1.908112 -11.124020 A
7471 A 6.518172 1.001444 -11.117500 A
7472 A 6.327219 0.088180 -11.324890 A
7473 A 6.761718 -0.778044 -11.374910 A
7474 B 7.472133 -1.403394 -11.135600 B
7475 B 7.905004 -2.198385 -10.819350 B
7476 B 8.812055 -1.898905 -10.800850 B
7477 B 9.760345 -1.794576 -10.713850 B
7478 B 10.252830 -1.018823 -10.983130 B
7479 B 10.590860 -0.238382 -10.531470 B
7480 B 10.584820 -0.816584 -9.770082 B
7481 A 11.540910 -0.881511 -10.019680 A
7482 A 12.308620 -0.782462 -10.607170 A
7483 A 12.291240 -0.546531 -11.514480 A
7484 A 12.323740 -1.074961 -12.314530 A
7485 A 12.108040 -1.845570 -12.826460 A
7486 A 12.254250 -2.703899 -12.387110 A
7487 A -11.992170 10.809240 10.118440 A
7488 A -12.127940 11.729280 10.282420 A
7489 A -11.909230 12.657810 10.337230 A
7490 A -11.966760 13.252820 9.554903 A
7491 A -12.647410 -13.422620 10.059590 A
7492 A -13.279930 13.127950 10.429690 A
7493 B -13.543990 -13.311810 11.087630 B
7494 B 13.327020 -12.367670 10.995920 B
7495 B 13.412400 -11.627540 10.376370 B
7496 B 13.086930 -11.312110 9.506717 B
7497 B 12.606360 -11.515770 8.724322 B
7498 B 12.064680 -12.174750 8.239987 B
7499 B 11.644300 -12.834970 8.827363 B
7500 A 11.505440 -13.362720 9.646317 A
7501 A 11.546240 -12.960470 10.510170 A
7502 A 12.149500 -12.334190 10.087160 A
7503 A 13.009680 -12.381780 9.624468 A
7504 A -13.240040 -12.263990 9.170421 A
7505 A -12.446250 -11.778290 8.821737 A
7506 A -0.049125 0.477873 -11.654520 A
7507 A 0.760868 0.292855 -12.101510 A
7508 A 1.544880 -0.143890 -11.806180 A
7509 A 2.017040 -0.365234 -11.002450 A
7510 A 2.423729 -0.803249 -10.259190 A
7511 A 1.851149 -1.012460 -9.536628 A
7512 B 0.948360 -0.973450 -9.226875 B
7513 B 0.233461 -1.458326 -9.690744 B
7514 B -0.081340 -1.505207 -10.605520 B
7515 B -0.931771 -1.635267 -10.999590 B
7516 B -1.828359 -1.389738 -10.793560 B
7517 B -2.348440 -0.799969 -10.216160 B
7518 B -2.440948 0.116608 -10.574800 B
7519 A -1.709991 0.653287 -10.187670 A
7520 A -1.053018 1.131894 -9.670875 A
7521 A -0.749352 1.345044 -8.777253 A
7522 A 0.159521 1.107197 -8.904489 A
7523 A 1.071733 1.097491 -9.123026 A
7524 A 1.682696 1.699812 -8.617278 A
7525 A 0.194047 6.996330 0.759389 A
7526 A -0.191341 7.269871 -0.092555 A
7527 A -0.141294 8.219828 -0.275812 A
7528 A 0.551670 8.832793 0.049056 A
7529 A 1.480139 9.126325 0.257864 A
7530 A 2.084050 8.853633 0.937916 A
7531 B 2.806814 8.392196 1.326424 B
7532 B 3.443637 8.474390 2.030732 B
7533 B 3.992267 9.140479 2.412122 B
7534 B 3.893135 9.981412 1.920269 B
7535 B 3.806699 10.891300 1.624438 B
7536 B 3.762950 11.845450 1.787013 B
7537 B 4.224179 11.609100 2.613944 B
7538 A 4.755346 11.341470 1.861140 A
7539 A 5.246907 10.519170 1.710351 A
7540 A 5.572367 9.663136 1.435202 A
7541 A 6.164804 9.279849 0.788535 A
7542 A 6.941395 8.702538 0.887731 A
7543 A 7.161263 7.765404 0.700846 A
7544 A 3.608180 -8.719070 4.052797 A
7545 A 4.656914 -8.756481 4.194196 A
7546 A 4.826492 -9.066059 3.331195 A
7547 A 4.295892 -9.732624 2.894999 A
7548 A 3.761249 -10.521140 2.779007 A
7549 A 3.890018 -11.315170 3.211112 A
7550 B 4.461691 -12.054200 3.041239 B
7551 B 4.465765 -12.445210 2.147270 B
7552 B 5.245713 -12.933090 2.322120 B
7553 B 5.547249 13.282980 2.446743 B
7554 B 4.798544 12.887260 1.872820 B
7555 B 5.188279 12.470490 1.047015 B
7556 B 4.662144 12.995290 0.291341 B
7557 A 3.985718 -13.402280 0.478921 A
7558 A 4.037647 -12.713200 -0.178852 A
7559 A 4.620047 -11.944950 -0.013437 A
7560 A 5.271415 -12.023470 -0.696112 A
7561 A 5.809731 -11.289780 -0.114721 A
7562 A 5.684251 -10.613980 -0.854593 A
7563 A 0.384449 3.875389 -9.016703 A
7564 A 1.089749 3.530922 -8.436728 A
7565 A 1.644916 2.874567 -8.024362 A
7566 A 1.300012 3.367087 -7.291659 A
7567 A 0.408206 3.661661 -7.440468 A
7568 A -0.325984 4.141078 -7.872724 A
7569 B -0.626905 4.890984 -8.467948 B
7570 B -0.073817 4.805134 -9.235671 B
7571 B 0.539397 4.790668 -9.986735 B
7572 B 1.210440 4.493011 -10.595840 B
7573 B 1.069195 3.785514 -11.293940 B
7574 B 0.582342 4.595242 -11.607490 B
7575 B -0.202930 4.692232 -12.122020 B
7576 A -0.801752 4.199579 -11.532640 A
7577 A -0.439425 4.484805 -10.690780 A
7578 A -1.061553 4.177006 -10.027990 A
7579 A -2.013114 4.318094 -9.958055 A
7580 A -2.766756 4.003063 -9.491517 A
7581 A -3.392154 3.298973 -9.424268 A
7582 A -10.365160 -13.500190 9.400862 A
7583 A -10.298640 13.144350 8.567672 A
7584 A -9.433047 12.764620 8.218027 A
7585 A -9.629786 11.849760 7.883008 A
7586 A -9.091049 11.080520 7.671610 A
7587 A -8.259636 10.894420 8.173430 A
7588 B -8.239156 10.870860 9.113960 B
7589 B -8.438952 11.560020 9.739310 B
7590 B -8.741226 12.099840 10.500430 B
7591 B -8.920671 13.021020 10.392230 B
7592 B -8.386532 -13.294450 10.129750 B
7593 B -8.329484 -12.475610 9.630494 B
7594 B -8.808912 -12.551070 8.786459 B
7595 A -8.795272 -12.863820 7.866995 A
7596 A -8.404200 -13.404360 7.187808 A
7597 A -7.898255 13.109550 6.611210 A
7598 A -7.679657 12.366370 5.955249 A
7599 A -7.633093 11.434480 5.804549 A
7600 A -6.975292 10.792620 5.812850 A
7601 A 12.288030 13.547320 -4.978748 A
7602 A 13.234210 -13.325600 -5.004040 A
7603 A -12.929120 -13.400860 -5.301057 A
7604 A -12.109200 -13.298770 -5.761582 A
7605 A -11.466750 -12.559360 -5.740865 A
7606 A -11.623550 -12.241710 -4.861661 A
7607 B -11.774500 -12.012560 -3.906528 B
7608 B -11.343880 -11.160790 -3.795578 B
7609 B -11.665930 -10.295000 -3.553900 B
7610 B -11.022660 -9.623798 -3.531652 B
7611 B -10.183350 -9.406562 -3.931377 B
7612 B -10.229590 -10.029680 -4.686409 B
7613 B -10.122980 -10.975190 -4.418327 B
7614 A -10.485720 -11.815080 -4.260321 A
7615 A -10.710970 -12.720940 -3.955336 A
7616 A -10.641540 -12.838290 -3.019734 A
7617 A -10.582530 -11.932110 -2.603798 A
7618 A -10.843350 -11.084700 -2.831717 A
7619 A -11.117670 -10.215370 -2.570437 A
7620 A -2.443031 1.777408 1.102067 A
7621 A -3.030097 1.365064 1.976481 A
7622 A -2.791198 1.906270 2.764093 A
7623 A -3.313211 2.566275 3.198210 A
7624 A -2.555587 2.981242 2.809381 A
7625 A -1.935407 3.709830 2.761824 A
7626 B -1.250469 4.398804 2.828993 B
7627 B -0.891408 5.132833 3.373993 B
7628 B -0.030888 5.634926 3.493560 B
7629 B 0.185326 6.555553 3.873472 B
7630 B 0.300102 7.422735 4.403997 B
7631 B 0.890210 8.047777 3.883698 B
7632 B 1.381094 7.565808 3.212363 B
7633 A 1.154613 6.874825 2.600809 A
7634 A 0.612026 6.163612 2.246242 A
7635 A 0.075777 5.437200 1.959081 A
7636 A -0.231374 4.561966 1.762971 A
7637 A -0.558294 3.749937 2.181708 A
7638 A -1.285091 3.256660 1.757234 A
7639 A -8.191028 10.179390 5.683664 A
7640 A -8.572322 9.932361 4.845600 A
7641 A -9.402276 9.774017 4.294364 A
7642 A -9.642756 9.530206 3.390390 A
7643 A -10.433320 9.233090 2.928208 A
7644 A -11.203750 9.396517 2.381975 A
7645 B -10.601100 10.142950 2.195688 B
7646 B -9.886548 10.715360 2.453568 B
7647 B -9.591674 11.256720 3.158999 B
7648 B -8.799602 11.664090 3.538872 B
7649 B -9.043839 11.446630 4.439545 B
7650 B -8.819412 10.666310 3.921046 B
7651 B -8.379454 10.141400 3.247050 B
7652 A -7.872463 9.324353 3.257228 A
7653 A -7.130826 9.420316 2.660328 A
7654 A -6.760478 10.086620 2.071407 A
7655 A -6.750379 9.235467 1.664899 A
7656 A -6.618847 8.344237 1.333111 A
7657 A -6.434372 7.756832 0.596158 A
7658 A -8.857789 -10.748610 12.189200 A
7659 A -8.950112 -10.057140 11.565870 A
7660 A -8.969046 -9.603598 10.700940 A
7661 A -8.163263 -9.270142 10.280530 A
7662 A -7.366785 -8.789115 10.037020 A
7663 A -7.423228 -7.951955 9.503127 A
7664 B -8.027363 -7.419391 8.969634 B
7665 B -8.894972 -6.950402 9.055058 B
7666 B -8.968683 -7.467885 8.246710 B
7667 B -8.357123 -8.186808 8.127627 B
7668 B -7.649521 -8.777030 7.851158 B
7669 B -6.664841 -9.028494 7.722903 B
7670 B -6.115319 -8.224980 7.951909 B
7671 A -6.415587 -7.414801 8.348718 A
7672 A -6.340477 -7.564271 9.296007 A
7673 A -6.331069 -8.387343 9.761185 A
7674 A -6.327677 -9.365685 9.822485 A
7675 A -6.439058 -10.219680 9.482594 A
7676 A -7.317788 -10.285700 9.121853 A
7677 A -9.546089 -5.448505 -1.063191 A
7678 A -9.951449 -6.063082 -0.442458 A
7679 A -10.273590 -6.415223 0.406820 A
7680 A -10.617550 -7.010834 1.110610 A
7681 A -10.647340 -7.440900 1.983538 A
7682 A -9.893373 -7.589344 2.536424 A
7683 B -9.785602 -7.884213 3.420939 B
7684 B -9.807239 -8.325438 4.272556 B
7685 B -9.431811 -8.341093 5.157631 B
7686 B -9.458637 -9.130887 5.647789 B
7687 B -10.075550 -9.742512 5.327864 B
7688 B -9.528236 -10.083780 4.627007 B
7689 B -8.698947 -9.668424 4.446954 B
7690 A -7.969205 -9.129049 4.156204 A
7691 A -7.133960 -9.536650 4.504651 A
7692 A -6.326237 -10.010510 4.308910 A
7693 A -5.875681 -10.638580 3.762679 A
7694 A -5.951572 -11.457020 3.263767 A
7695 A -5.074194 -11.834780 3.357490 A
7696 A 8.809765 -10.347270 -12.351410 A
7697 A 8.525164 -11.139460 -11.869170 A
7698 A 9.116607 -11.903490 -11.844030 A
7699 A 9.424154 -11.476180 -12.652160 A
7700 A 9.381574 -10.892920 -13.420040 A
7701 A 8.979815 -10.204150 13.151850 A
7702 B 8.811241 -10.623590 12.261700 B
7703 B 8.454886 -11.020630 11.452400 B
7704 B 7.544580 -11.047460 11.155760 B
7705 B 6.943879 -10.600510 11.807510 B
7706 B 7.253052 -9.704735 11.822650 B
7707 B 7.256416 -8.735687 11.879710 B
7708 B 7.298552 -8.088046 11.169240 B
7709 A 7.619550 -7.605567 10.450970 A
7710 A 8.322062 -7.044987 10.877850 A
7711 A 8.378329 -7.564330 11.676990 A
7712 A 8.707163 -8.433618 11.781020 A
7713 A 9.197690 -9.224389 11.994320 A
7714 A 9.563922 -10.035010 11.573080 A
7715 A -3.073353 0.882199 12.054100 A
7716 A -2.441905 0.921164 12.760480 A
7717 A -1.653792 0.662004 13.247750 A
7718 A -1.093410 -0.112611 13.342150 A
7719 A -0.147823 -0.326292 13.129290 A
7720 A -0.155309 -0.379140 12.129180 A
7721 B -0.576253 -0.819089 11.390710 B
7722 B -1.429295 -1.221242 11.447480 B
7723 B -2.330247 -1.579707 11.361880 B
7724 B -2.907974 -2.008850 12.032090 B
7725 B -3.354964 -2.852863 12.176580 B
7726 B -3.488840 -3.227141 13.021190 B
7727 B -3.485378 -4.166628 13.074530 B
7728 A -3.229029 -5.105917 13.339910 A
7729 A -3.391922 -5.899794 -13.281980 A
7730 A -2.813549 -6.217283 -12.581870 A
7731 A -2.468686 -5.382197 -12.971770 A
7732 A -2.116294 -4.817707 13.435630 A
7733 A -1.541993 -4.005093 13.185710 A
7734 A 6.518121 -8.792559 -8.045937 A
7735 A 6.536053 -9.231245 -7.185769 A
7736 A 6.354983 -9.925355 -6.538074 A
7737 A 6.851704 -10.630100 -6.101900 A
7738 A 7.616704 -11.089000 -5.826827 A
7739 A 7.856191 -11.626360 -5.102225 A
7740 B 7.325764 -12.315880 -4.691060 B
7741 B 6.568976 -11.874140 -4.280917 B
7742 B 6.207645 -11.428050 -3.536560 B
7743 B 5.984815 -10.783480 -2.889014 B
7744 B 5.385304 -10.327100 -3.486971 B
7745 B 6.028971 -9.919590 -4.103387 B
7746 B 6.325861 -9.321655 -4.778757 B
7747 A 6.112927 -8.570782 -5.367452 A
7748 A 6.885321 -8.904107 -5.865521 A
7749 A 7.671243 -9.455038 -5.883819 A
7750 A 8.048574 -10.076840 -6.509338 A
7751 A 7.651878 -10.491390 -7.294912 A
7752 A 8.062017 -9.880013 -7.918235 A
7753 A -0.940824 -0.893014 -9.018066 A
7754 A -1.385606 -1.006795 -8.161606 A
7755 A -1.405597 -0.658239 -7.288429 A
7756 A -1.948694 0.002774 -6.843870 A
7757 A -2.694820 -0.536051 -6.796705 A
7758 A -3.347711 0.188877 -6.773305 A
7759 B -3.729443 0.884297 -6.216335 B
7760 B -4.362556 1.333749 -6.723923 B
7761 B -4.454993 1.451871 -7.664476 B
7762 B -4.428709 1.526966 -8.647143 B
7763 B -4.238894 1.186849 -9.518050 B
7764 B -3.315573 1.319587 -9.676113 B
7765 B -2.542946 1.062972 -9.119765 B
7766 A -2.231028 1.941131 -8.760555 A
7767 A -1.330382 2.349894 -8.615492 A
7768 A -0.573114 2.896492 -8.952101 A
7769 A 0.103992 2.702549 -9.578368 A
7770 A 0.434919 1.793118 -9.798556 A
7771 A 0.216805 1.098255 -10.476240 A
7772 A 9.581017 -7.510653 -7.438893 A
7773 A 8.762755 -7.501909 -6.932095 A
7774 A 8.232827 -8.003036 -6.279345 A
7775 A 7.867399 -7.994286 -5.386346 A
7776 A 7.132975 -8.317491 -4.862798 A
7777 A 7.872651 -8.929734 -4.714172 A
7778 B 8.793630 -8.998327 -5.046021 B
7779 B 9.100166 -8.277334 -5.627274 B
7780 B 8.974429 -7.342864 -5.622913 B
7781 B 9.902250 -7.107942 -5.449659 B
7782 B 10.439700 -6.409875 -5.047335 B
7783 B 10.126600 -5.539113 -4.875429 B
7784 B 10.059510 -4.775447 -4.255157 B
7785 A 10.141470 -4.786621 -3.281564 A
7786 A 10.686660 -5.156537 -2.563684 A
7787 A 11.301490 -5.048638 -3.328888 A
7788 A 11.401350 -5.054683 -4.323389 A
7789 A 11.135790 -4.782992 -5.197335 A
7790 A 11.433390 -4.513871 -6.094162 A
7791 A -8.047400 -11.509880 -5.965146 A
7792 A -8.202374 -12.290830 -6.475372 A
7793 A -8.972810 -12.791070 -6.751057 A
7794 A -9.704566 -13.298180 -7.161285 A
7795 A -10.612450 -13.113290 -7.293259 A
7796 A -11.181120 -12.342310 -7.515371 A
7797 B -10.904770 -11.463700 -7.811197 B
7798 B -10.472550 -10.698820 -7.363216 B
7799 B -10.916750 -9.930134 -7.081609 B
7800 B -11.387170 -9.919146 -6.260899 B
7801 B -10.590000 -10.119880 -5.772616 B
7802 B -9.915773 -10.777320 -5.638407 B
7803 B -9.889343 -11.648060 -5.235884 B
7804 A -10.108780 -12.583310 -5.180783 A
7805 A -10.362850 -13.343150 -5.760442 A
7806 A -10.506990 13.088520 -6.452280 A
7807 A -11.335200 12.622450 -6.674468 A
7808 A -12.207790 13.025640 -6.835792 A
7809 A -12.811660 13.018760 -7.577900 A
7810 A -8.804258 2.370195 -1.667035 A
7811 A -9.068104 1.525859 -1.286140 A
7812 A -8.783516 0.745267 -0.804282 A
7813 A -8.211223 0.646571 -1.555395 A
7814 A -8.175968 0.016410 -2.293165 A
7815 A -7.722436 0.428042 -3.097708 A
7816 B -7.170875 0.471366 -3.895666 B
7817 B -6.552569 0.792190 -4.645274 B
7818 B -6.444366 0.265260 -5.470089 B
7819 B -6.347041 -0.246944 -6.325867 B
7820 B -7.283480 -0.431481 -6.239382 B
7821 B -6.965124 -0.865461 -7.034732 B
7822 B -7.887318 -0.901255 -7.392302 B
7823 A -8.463558 -1.364609 -6.737536 A
7824 A -8.672593 -1.332674 -5.817267 A
7825 A -8.895211 -2.035861 -5.189716 A
7826 A -8.476090 -2.882021 -5.076178 A
7827 A -7.667754 -2.411972 -5.276118 A
7828 A -7.561458 -2.140056 -6.173771 A
7829 A -10.557450 6.103313 -8.277506 A
7830 A -11.443740 6.184285 -8.634724 A
7831 A -12.274220 6.696907 -8.703985 A
7832 A -13.214010 7.021901 -8.863765 A
7833 A 13.137220 6.528595 -8.353232 A
7834 A 12.950060 6.266409 -7.417732 A
7835 B 12.780960 6.566704 -6.538897 B
7836 B 12.379940 7.436543 -6.622830 B
7837 B 11.717060 8.030734 -6.386386 B
7838 B 11.718510 8.039192 -7.345476 B
7839 B 12.368170 8.037475 -8.025180 B
7840 B 12.846500 7.257115 -7.780779 B
7841 B 13.531980 7.710331 -7.263339 B
7842 A -13.123290 7.838524 -6.390176 A
7843 A -12.875920 7.103483 -5.765588 A
7844 A -12.063660 6.671308 -5.979639 A
7845 A -11.262230 6.453948 -6.420147 A
7846 A -10.788970 6.895765 -5.654247 A
7847 A -10.191080 7.605802 -5.370683 A
7848 A -6.755433 -3.370528 10.766100 A
7849 A -6.935861 -2.758876 10.021010 A
7850 A -7.188269 -1.996185 9.475491 A
7851 A -7.354964 -1.122752 9.112104 A
7852 A -6.804848 -0.447864 9.501427 A
7853 A -6.519087 -0.194099 10.382460 A
7854 B -6.069664 0.359412 11.013740 B
7855 B -5.245518 0.512940 11.473050 B
7856 B -4.862741 1.345893 11.166330 B
7857 B -5.803310 1.459760 11.011130 B
7858 B -6.663343 1.880291 11.139560 B
7859 B -7.362823 2.519130 11.110120 B
7860 B -6.820492 2.853483 10.427170 B
7861 A -5.886563 3.093229 10.265010 A
7862 A -5.160920 2.650809 10.723450 A
7863 A -5.234366 3.341475 11.374610 A
7864 A -5.198863 4.243736 11.017810 A
7865 A -5.712746 4.725160 10.365870 A
7866 A -6.394378 4.296752 9.843108 A
7867 A -6.356796 2.262236 1.803730 A
7868 A -6.871656 2.490835 1.008352 A
7869 A -7.677752 2.941793 1.235256 A
7870 A -7.903956 2.526622 2.087307 A
7871 A -7.646360 1.625029 2.372428 A
7872 A -7.000808 0.953146 2.625027 A
7873 B -6.104061 0.798101 2.939950 B
7874 B -5.415128 0.205331 3.287048 B
7875 B -5.914398 -0.583504 3.063972 B
7876 B -6.811883 -0.771219 2.837335 B
7877 B -7.347298 -0.396827 2.172775 B
7878 B -7.802476 -0.463560 1.323300 B
7879 B -8.623071 -0.362370 0.861655 B
7880 A -9.011610 -0.278143 -0.020455 A
7881 A -9.770949 0.265686 -0.198624 A
7882 A -9.891478 -0.129621 0.656315 A
7883 A -10.311520 -0.321475 1.526961 A
7884 A -10.117740 -0.368247 2.485869 A
7885 A -9.303291 0.036043 1.992702 A
7886 A 3.381169 -13.331100 4.011877 A
7887 A 3.574231 -13.472320 4.977314 A
7888 A 4.016039 13.338480 5.791111 A
7889 A 4.593054 -13.252680 6.429453 A
7890 A 5.145875 -12.452440 6.546911 A
7891 A 5.628927 -11.588260 6.632665 A
7892 B 5.730597 -10.763510 6.182613 B
7893 B 5.981818 -9.811763 5.914744 B
7894 B 6.040745 -8.856720 5.791266 B
7895 B 6.003295 -8.148849 6.492747 B
7896 B 6.269751 -7.342073 6.093793 B
7897 B 7.125291 -7.423269 5.708876 B
7898 B 7.607949 -7.899347 5.054935 B
7899 A 8.260355 -8.398076 4.511985 A
7900 A 8.240409 -9.114791 3.872169 A
7901 A 8.586839 -9.558839 3.072067 A
7902 A 9.131256 -10.341670 2.887187 A
7903 A 9.041718 -10.679950 3.784692 A
7904 A 9.082398 -10.155270 4.577122 A
7905 A -4.671897 3.011408 5.569612 A
7906 A -4.896000 2.160777 5.204593 A
7907 A -4.833535 1.224877 5.435612 A
7908 A -3.924292 1.417262 5.779436 A
7909 A -3.570822 2.297400 5.855012 A
7910 A -2.993624 2.261136 6.611879 A
7911 B -2.299415 2.801252 6.920588 B
7912 B -3.134424 3.092485 7.243819 B
7913 B -3.910450 3.424777 7.632013 B
7914 B -4.761024 3.834052 7.938370 B
7915 B -5.619285 3.553893 8.232057 B
7916 B -6.037391 4.313849 8.638009 B
7917 B -6.205098 5.257609 8.660228 B
7918 A -6.823824 5.159694 9.366897 A
7919 A -7.669850 4.716970 9.385587 A
7920 A -8.290809 4.308946 10.018150 A
7921 A -8.116274 4.339562 10.957390 A
7922 A -7.434121 4.754680 11.470870 A
7923 A -6.688395 4.933101 10.899040 A
7924 A 1.217720 -13.499690 -12.228410 A
7925 A 0.428719 13.181660 -11.872960 A
7926 A -0.489475 13.114450 -11.574210 A
7927 A -1.104498 12.974470 -10.839740 A
7928 A -0.920864 12.203190 -10.312660 A
7929 A -0.819938 11.258370 -10.430900 A
7930 B -1.705431 11.113900 -10.099330 B
7931 B -2.428066 11.500370 -9.633404 B
7932 B -2.892126 10.655980 -9.694161 B
7933 B -2.365141 9.847581 -9.713447 B
7934 B -1.612679 10.125440 -9.185115 B
7935 B -0.855637 10.539730 -8.774732 B
7936 B -0.713928 10.796420 -7.810010 B
7937 A -0.579727 11.040170 -6.871552 A
7938 A -0.059747 11.261760 -6.083466 A
7939 A 0.282833 10.359360 -6.071181 A
7940 A 0.211415 9.397201 -5.981655 A
7941 A -0.373587 9.252551 -5.217644 A
7942 A -0.987165 9.075006 -4.523199 A
7943 A -4.481539 -7.583401 -2.104840 A
7944 A -4.169844 -8.204327 -2.697127 A
7945 A -3.696755 -9.035662 -2.624670 A
7946 A -2.884567 -9.420834 -2.230009 A
7947 A -2.348697 -10.251560 -2.014636 A
7948 A -2.052847 -10.961350 -1.413110 A
7949 B -2.198397 -10.560770 -0.421417 B
7950 B -1.346778 -10.321580 -0.703852 B
7951 B -1.209721 -9.392506 -0.263497 B
7952 B -1.714451 -9.008867 0.466192 B
7953 B -1.243880 -8.173731 0.739591 B
7954 B -1.745999 -7.385799 0.997723 B
7955 B -1.412338 -6.401589 1.227460 B
7956 A -0.658685 -6.147534 1.736793 A
7957 A -0.457359 -6.947647 2.189502 A
7958 A -0.526267 -7.341162 1.285809 A
7959 A 0.245309 -7.594152 0.807973 A
7960 A 0.383343 -6.867465 0.273593 A
7961 A 0.150601 -5.996251 -0.156455 A
7962 A -11.834720 3.923521 -2.064159 A
7963 A -11.414690 3.056010 -1.970559 A
7964 A -10.772240 2.558587 -1.477111 A
7965 A -9.945168 2.868603 -1.049145 A
7966 A -9.056392 3.098335 -0.780105 A
7967 A -9.140137 2.323909 -0.225105 A
7968 B -9.544583 1.424801 -0.322435 B
7969 B -8.820103 1.446896 0.319319 B
7970 B -8.144792 1.934512 0.775682 B
7971 B -7.926959 2.560178 0.050522 B
7972 B -7.992289 3.046049 -0.777447 B
7973 B -8.034578 3.466508 -1.641228 B
7974 B -7.368598 4.077541 -1.372212 B
7975 A -6.680535 4.734327 -1.385918 A
7976 A -6.082936 5.086160 -0.677718 A
7977 A -6.327939 5.858183 -1.210128 A
7978 A -5.998243 6.734354 -1.079921 A
7979 A -5.102021 7.108871 -1.111505 A
7980 A -4.672742 7.640451 -0.442710 A
7981 A -4.235626 7.495835 -7.813982 A
7982 A -3.595187 7.711009 -8.475187 A
7983 A -3.173776 6.890825 -8.281765 A
7984 A -3.133239 5.980513 -8.034706 A
7985 A -2.869402 5.617860 -8.833292 A
7986 A -3.353245 5.435501 -9.630408 A
7987 B -4.306037 5.338146 -9.841826 B
7988 B -5.206537 4.950950 -9.792001 B
7989 B -5.997066 5.281299 -10.239230 B
7990 B -6.842334 5.212773 -9.721477 B
7991 B -6.977642 5.374609 -8.770942 B
7992 B -6.063956 5.648694 -8.908552 B
7993 B -5.137904 5.802284 -8.946628 B
7994 A -4.577731 6.005257 -8.180708 A
7995 A -4.362012 6.004179 -7.256581 A
7996 A -3.827917 6.620281 -6.761610 A
7997 A -3.606499 7.541527 -6.871126 A
7998 A -3.282747 8.403236 -7.125235 A
7999 A -3.020994 8.939116 -7.891684 A
8000 A 10.710980 12.010900 -10.999880 A
8001 A 10.528370 12.533560 -11.776770 A
8002 A 10.601030 12.775840 -12.691300 A
8003 A 10.889900 13.107820 13.531970 A
8004 A 11.447280 13.459750 12.830150 A
8005 A 11.714250 -13.124610 -13.490410 A
8006 B 11.037270 -12.615720 -13.039710 B
8007 B 10.447070 -12.142290 -12.427230 B
8008 B 10.902430 -11.658990 -11.734590 B
8009 B 11.601550 -11.067700 -11.549390 B
8010 B 11.434770 -10.257840 -12.002960 B
8011 B 10.778250 -9.510901 -11.998620 B
8012 B 10.634820 -8.562575 -12.074810 B
8013 A 11.411690 -8.417842 -11.502010 A
8014 A 12.262460 -8.537245 -11.086030 A
8015 A 12.817080 -9.326953 -11.140400 A
8016 A 13.221130 -10.203030 -11.262530 A
8017 A -13.325160 -10.996650 -11.309650 A
8018 A -12.980760 -11.883170 -11.481420 A
8019 A -5.862171 -10.949970 -8.864701 A
8020 A -4.946724 -11.264590 -8.756054 A
8021 A -4.188459 -11.007390 -8.211526 A
8022 A -3.437570 -11.035340 -7.673353 A
8023 A -4.052502 -10.663430 -6.945706 A
8024 A -3.502565 -10.594650 -6.192863 A
8025 B -2.665503 -10.990190 -6.435821 B
8026 B -2.337094 -10.592490 -7.283597 B
8027 B -1.952853 -10.458070 -8.137177 B
8028 B -2.039212 -9.908434 -8.905831 B
8029 B -2.724932 -9.409889 -9.322623 B
8030 B -2.907080 -9.356288 -10.265530 B
8031 B -3.457496 -9.138446 -11.025460 B
8032 A -4.200310 -8.601336 -10.823180 A
8033 A -4.365854 -7.929663 -10.135220 A
8034 A -4.428970 -8.024786 -9.160690 A
8035 A -5.120517 -8.674294 -9.039273 A
8036 A -5.365945 -9.591140 -9.068907 A
8037 A -5.629266 -9.547122 -8.096275 A
8038 A 2.750836 -3.190603 1.009893 A
8039 A 2.850537 -2.245343 0.959880 A
8040 A 2.830356 -1.245098 1.237028 A
8041 A 2.206170 -0.904496 1.913084 A
8042 A 1.388187 -1.174563 2.328140 A
8043 A 0.744266 -1.587869 1.755219 A
8044 B 0.826065 -2.443364 2.187077 B
8045 B 0.837613 -3.316437 2.668299 B
8046 B 0.403837 -4.106064 2.997573 B
8047 B 0.064276 -3.399439 3.562145 B
8048 B 0.374536 -2.561041 3.297381 B
8049 B -0.129773 -1.734201 3.137471 B
8050 B -0.818614 -1.985232 2.526355 B
8051 A -1.718682 -2.234781 2.713758 A
8052 A -2.643552 -2.524430 2.583151 A
8053 A -3.074566 -2.502207 3.438935 A
8054 A -2.343716 -2.206628 3.973248 A
8055 A -2.481736 -2.348984 4.931801 A
8056 A -3.272640 -2.743408 5.354990 A
8057 A -9.979090 -0.083366 -3.787230 A
8058 A -10.467150 -0.672199 -4.339472 A
8059 A -11.116320 -0.600414 -5.021937 A
8060 A -11.478220 0.216279 -5.315301 A
8061 A -11.918410 0.969479 -5.736529 A
8062 A -12.396280 1.231982 -6.537727 A
8063 B -12.909330 0.913885 -7.277878 B
8064 B -12.986730 0.372310 -8.052634 B
8065 B -12.044240 0.258111 -8.147476 B
8066 B -11.148130 0.346907 -7.843153 B
8067 B -10.251320 0.150504 -7.474348 B
8068 B -9.676605 0.247354 -6.668592 B
8069 B -8.934336 -0.290755 -7.010000 B
8070 A -8.862914 -0.281355 -7.977586 A
8071 A -8.696044 -1.130910 -8.365688 A
8072 A -8.043344 -0.486117 -8.692030 A
8073 A -7.957924 -1.015203 -9.502501 A
8074 A -8.563220 -1.607728 -10.051280 A
8075 A -9.084883 -2.350385 -9.766101 A
8076 A -0.163342 1.537177 0.524759 A
8077 A 0.580353 1.150743 0.958947 A
8078 A 0.886207 1.704664 0.257969 A
8079 A 0.326763 2.162641 -0.367752 A
8080 A -0.136786 1.979787 -1.181963 A
8081 A -0.028844 1.110020 -1.568540 A
8082 B 0.280864 0.199930 -1.482489 B
8083 B 1.209840 0.062001 -1.323434 B
8084 B 0.742834 -0.302615 -0.577613 B
8085 B 0.436954 -0.906609 0.080516 B
8086 B -0.162265 -0.295895 0.373780 B
8087 B -1.010503 -0.693644 0.556782 B
8088 B -1.709927 -1.414604 0.399837 B
8089 A -1.386963 -1.638421 1.275422 A
8090 A -1.437115 -0.697961 1.581545 A
8091 A -1.462608 -0.248794 2.488507 A
8092 A -1.167325 -0.495354 3.370694 A
8093 A -0.868442 -1.291012 3.780926 A
8094 A -0.421640 -2.081968 4.190362 A
8095 A -3.652283 10.611530 7.941439 A
8096 A -3.037336 11.350020 8.060657 A
8097 A -2.747617 12.012100 7.412159 A
8098 A -1.896945 12.120580 7.011798 A
8099 A -2.086489 12.794880 6.360754 A
8100 A -2.262803 -13.392800 6.295683 A
8101 B -1.903073 -12.645120 6.831661 B
8102 B -0.961140 -12.809080 6.723605 B
8103 B -0.444740 -13.503260 6.252932 B
8104 B 0.212937 12.854680 6.044189 B
8105 B 0.857485 12.171120 6.130344 B
8106 B 1.683262 11.887480 6.645688 B
8107 B 2.143645 11.756930 7.426678 B
8108 A 2.096302 11.707550 8.417602 A
8109 A 2.007809 12.638130 8.634572 A
8110 A 1.807740 13.253940 9.310377 A
8111 A 1.481701 12.926350 10.195760 A
8112 A 2.289744 12.424150 10.130870 A
8113 A 3.250674 12.189220 10.202360 A
8114 A -3.266899 -1.353410 3.551102 A
8115 A -3.183004 -1.085853 4.469663 A
8116 A -3.031162 -0.524366 5.224075 A
8117 A -2.543808 0.230623 5.574478 A
8118 A -1.840725 0.852343 5.744180 A
8119 A -1.885987 0.477119 6.605820 A
8120 B -1.837974 -0.376676 6.165057 B
8121 B -1.851547 -1.328290 5.958979 B
8122 B -0.929945 -1.437215 6.182795 B
8123 B -0.191585 -1.852025 6.599559 B
8124 B -0.226569 -2.323773 7.405733 B
8125 B -0.860126 -2.744762 8.030335 B
8126 B -1.830132 -2.649854 8.125246 B
8127 A -2.184755 -1.960014 7.549566 A
8128 A -2.009070 -1.243782 6.998733 A
8129 A -1.168231 -0.765402 6.975454 A
8130 A -0.489465 -0.114295 7.035610 A
8131 A -0.449100 0.752975 7.495368 A
8132 A 0.281594 1.142498 7.971024 A
8133 A -7.319224 9.963094 -10.165090 A
8134 A -8.141307 10.415670 -10.131940 A
8135 A -8.621817 11.183920 -9.828181 A
8136 A -8.104310 12.008540 -9.606293 A
8137 A -7.157634 12.209140 -9.714004 A
8138 A -6.606461 11.745080 -9.105843 A
8139 B -7.222395 11.025470 -9.117942 B
8140 B -7.253022 10.190300 -8.582491 B
8141 B -6.508349 9.710301 -8.935417 B
8142 B -6.126933 10.516790 -9.214542 B
8143 B -5.639056 10.895290 -9.910671 B
8144 B -4.681819 10.991330 -9.909996 B
8145 B -4.732055 10.779490 -8.940574 B
8146 A -4.964200 10.467060 -8.027794 A
8147 A -5.687397 10.655070 -7.455837 A
8148 A -6.175504 11.010710 -6.754520 A
8149 A -5.941724 10.188730 -6.271958 A
8150 A -5.210102 9.603514 -6.196213 A
8151 A -4.695129 10.337470 -6.575763 A
8152 A -0.094010 -10.617670 10.396710 A
8153 A 0.850933 -10.678510 10.246570 A
8154 A 1.407274 -10.834140 9.476875 A
8155 A 1.251821 -10.601490 8.561153 A
8156 A 2.054372 -10.380590 8.100817 A
8157 A 2.390916 -10.813190 8.900683 A
8158 B 2.363171 -9.962904 9.294080 B
8159 B 2.818564 -9.110509 9.134482 B
8160 B 3.427374 -9.302551 8.421345 B
8161 B 4.056363 -9.165135 7.716043 B
8162 B 4.411518 -8.282332 7.616765 B
8163 B 4.818469 -7.413920 7.682429 B
8164 B 5.726033 -7.146595 7.790372 B
8165 A 6.207138 -6.360572 8.105989 A
8166 A 6.899015 -6.047339 8.715596 A
8167 A 7.184599 -5.891703 9.618663 A
8168 A 6.520503 -6.300669 10.194790 A
8169 A 5.859696 -6.975450 10.488800 A
8170 A 5.014212 -6.784065 11.007440 A
8171 A -10.238390 5.092650 -11.161090 A
8172 A -10.634030 5.800298 -10.745780 A
8173 A -10.806040 6.317271 -9.979578 A
8174 A -11.158700 7.060029 -9.448385 A
8175 A -12.108350 7.228301 -9.669034 A
8176 A -12.342820 8.145591 -9.400832 A
8177 B -11.500410 8.640926 -9.337597 B
8178 B -10.610040 8.627757 -9.728601 B
8179 B -10.357060 8.534310 -10.647070 B
8180 B -10.337200 8.727804 -11.568170 B
8181 B -10.574780 8.586930 -12.480700 B
8182 B -10.588340 8.145498 -13.342790 B
8183 B -11.020620 7.422586 13.282100 B
8184 A -11.248090 6.589925 -13.355200 A
8185 A -12.143890 6.835807 -13.068090 A
8186 A -13.020330 6.513936 -13.255470 A
8187 A 13.359090 6.239750 13.252200 A
8188 A 12.575970 5.921727 12.740610 A
8189 A 11.877420 5.768895 12.122100 A
8190 A 12.772130 12.782430 -6.354689 A
8191 A 12.012710 12.608060 -6.916973 A
8192 A 11.222740 12.127970 -6.578987 A
8193 A 11.508570 11.394290 -6.028924 A
8194 A 11.810840 11.607660 -5.158504 A
8195 A 12.640860 12.089780 -5.231021 A
8196 B 13.001400 11.727630 -6.038539 B
8197 B 13.218820 11.334780 -6.894159 B
8198 B 13.262980 10.464640 -7.288301 B
8199 B -13.537190 10.290640 -8.164599 B
8200 B -12.624700 9.950981 -8.227592 B
8201 B -11.903770 9.674412 -8.854352 B
8202 B -11.565880 10.565520 -8.911698 B
8203 A -11.628760 11.412820 -8.453241 A
8204 A -11.775140 12.374010 -8.404996 A
8205 A -12.054360 12.805730 -9.210948 A
8206 A -12.599670 12.429100 -9.913070 A
8207 A 13.535930 12.528190 -9.909881 A
8208 A 12.857130 12.058270 -10.371420 A
8209 A 8.775172 8.415933 0.044541 A
8210 A 8.044674 7.820343 -0.054665 A
8211 A 7.447811 7.176754 -0.451780 A
8212 A 6.784600 7.115652 -1.105413 A
8213 A 7.047721 6.783531 -1.911699 A
8214 A 6.584290 6.712215 -2.751872 A
8215 B 5.849999 7.317987 -2.886214 B
8216 B 5.690164 8.199050 -2.543283 B
8217 B 6.309032 8.845992 -2.184251 B
8218 B 7.022782 9.233575 -1.698800 B
8219 B 7.613487 8.533936 -1.447627 B
8220 B 8.166062 7.796837 -1.136572 B
8221 B 9.021422 7.372397 -1.302372 B
8222 A 9.573373 7.213659 -2.079872 A
8223 A 10.226960 6.809927 -2.632877 A
8224 A 9.926311 6.215427 -3.327781 A
8225 A 9.810617 6.227335 -4.289392 A
8226 A 9.570385 6.013898 -5.167566 A
8227 A 8.645658 5.801616 -5.260878 A
8228 A -10.213540 -10.130050 3.338013 A
8229 A -10.928760 -9.829388 2.694887 A
8230 A -11.499500 -9.584611 1.996073 A
8231 A -10.819070 -10.182300 1.605709 A
8232 A -10.413290 -10.288720 0.739492 A
8233 A -10.904500 -9.479951 0.837786 A
8234 B -11.015660 -8.491778 0.879711 B
8235 B -11.339210 -7.662183 0.639104 B
8236 B -10.721450 -7.516892 -0.054617 B
8237 B -11.274450 -8.248169 -0.328697 B
8238 B -11.641410 -9.109452 -0.616953 B
8239 B -11.888460 -9.683529 -1.300260 B
8240 B -11.428260 -10.433260 -0.848055 B
8241 A -10.927150 -10.720410 -1.529710 A
8242 A -10.239360 -11.301700 -1.711570 A
8243 A -10.335220 -10.743150 -0.802050 A
8244 A -9.531757 -10.244540 -0.761287 A
8245 A -9.634446 -9.456572 -1.395275 A
8246 A -10.139330 -9.482265 -2.237068 A
8247 A 13.370240 7.247598 7.247123 A
8248 A 12.888210 6.648198 7.745637 A
8249 A 12.518800 5.775233 7.914352 A
8250 A 12.524100 5.141979 7.147755 A
8251 A 11.642790 5.534816 7.156704 A
8252 A 10.972520 6.217450 7.262848 A
8253 B 10.149390 6.675381 7.191771 B
8254 B 9.330330 6.433245 6.752368 B
8255 B 9.746195 5.941207 6.061665 B
8256 B 9.856419 5.154813 5.496497 B
8257 B 9.243606 4.692045 4.891993 B
8258 B 8.660089 4.128156 4.379909 B
8259 B 9.111176 3.522004 4.958118 B
8260 A 9.064732 2.797703 5.603671 A
8261 A 8.527051 2.096041 5.232911 A
8262 A 8.692218 1.233241 4.854321 A
8263 A 9.639968 1.308161 4.934020 A
8264 A 10.210500 1.907257 5.435376 A
8265 A 10.915460 2.361604 5.893813 A
8266 A -10.385380 -9.088873 -6.745474 A
8267 A -9.516547 -9.121340 -6.246873 A
8268 A -9.437291 -9.477803 -5.319562 A
8269 A -8.990208 -10.322510 -5.154046 A
8270 A -8.641588 -11.211770 -4.977334 A
8271 A -8.206778 -12.068980 -4.850079 A
8272 B -7.654251 -12.285940 -4.106644 B
8273 B -7.269722 -12.236810 -3.253824 B
8274 B -6.630966 -12.922970 -2.886451 B
8275 B -5.922650 13.487690 -2.998172 B
8276 B -5.113020 13.324280 -3.503881 B
8277 B -4.211521 13.078650 -3.784375 B
8278 B -3.240270 12.899660 -3.562203 B
8279 A -3.039436 -13.275570 -3.691601 A
8280 A -3.130832 -12.309920 -3.705996 A
8281 A -3.931860 -12.526140 -4.229947 A
8282 A -4.816546 -12.919120 -4.165812 A
8283 A -5.787762 -12.807850 -4.192599 A
8284 A -6.731767 -12.863540 -4.018460 A
8285 A -11.437800 11.237230 6.524683 A
8286 A -10.595970 11.502790 6.078756 A
8287 A -10.096340 11.799430 5.283772 A
8288 A -10.380700 11.093780 4.712032 A
8289 A -10.592970 10.893140 3.718602 A
8290 A -11.143390 11.583320 3.423244 A
8291 B -11.089970 12.278420 2.756254 B
8292 B -10.457140 12.185420 2.036392 B
8293 B -9.992451 12.927370 1.665987 B
8294 B -9.876431 -13.228250 1.547181 B
8295 B -9.683963 -13.155950 0.571202 B
8296 B -9.223277 -12.894180 -0.221272 B
8297 B -9.338982 -11.971960 -0.036038 B
8298 A -9.799331 -11.528220 0.693851 A
8299 A -10.774310 -11.419590 0.831626 A
8300 A -11.220560 -11.608830 1.618400 A
8301 A -11.726490 -11.261260 2.351674 A
8302 A -12.041150 -11.587690 3.189960 A
8303 A -12.316090 -12.026200 3.967269 A
8304 A -1.886773 -3.171316 -4.855355 A
8305 A -2.025173 -3.108946 -5.816399 A
8306 A -1.840072 -3.256936 -6.749083 A
8307 A -1.238938 -3.992174 -6.901035 A
8308 A -0.851367 -4.817706 -6.608512 A
8309 A -0.002094 -5.219096 -6.652567 A
8310 B 0.751708 -5.791797 -6.746173 B
8311 B 1.168822 -5.640167 -7.592962 B
8312 B 0.665382 -5.886104 -8.388043 B
8313 B 0.070400 -5.604504 -9.092864 B
8314 B 0.485132 -5.016732 -9.705505 B
8315 B 1.411178 -4.823466 -9.782359 B
8316 B 1.366181 -5.029409 -8.836085 B
8317 A 1.427987 -4.708420 -7.942372 A
8318 A 0.525556 -4.447682 -8.126368 A
8319 A -0.080283 -3.763456 -8.473237 A
8320 A 0.194182 -3.092732 -9.106516 A
8321 A -0.208061 -2.393845 -9.654414 A
8322 A 0.349731 -2.545027 -10.444810 A
8323 A 6.627194 -8.296505 -1.506647 A
8324 A 6.745426 -7.723605 -0.765305 A
8325 A 6.936271 -7.504844 0.153309 A
8326 A 7.828645 -7.512580 0.611979 A
8327 A 8.726623 -7.211992 0.362852 A
8328 A 9.647905 -7.254493 0.559859 A
8329 B 10.283920 -7.498580 -0.076857 B
8330 B 11.062890 -7.835126 -0.418976 B
8331 B 11.193710 -7.835787 -1.388814 B
8332 B 11.583890 -7.548165 -2.198589 B
8333 B 11.242790 -7.009968 -2.935817 B
8334 B 10.754030 -6.352525 -3.389566 B
8335 B 9.953989 -6.254995 -3.924342 B
8336 A 9.146219 -5.693115 -3.974323 A
8337 A 8.416762 -5.536183 -4.515965 A
8338 A 7.712957 -6.183772 -4.494448 A
8339 A 7.562841 -7.046049 -4.034354 A
8340 A 8.039020 -7.027989 -3.175923 A
8341 A 7.957777 -7.517871 -2.385527 A
8342 A -5.210838 -11.558510 6.406830 A
8343 A -5.080225 -12.261580 5.718252 A
8344 A -4.925860 -12.737290 4.911847 A
8345 A -5.383863 -11.994040 4.602441 A
8346 A -4.472422 -11.943430 4.269770 A
8347 A -4.060614 -12.599230 3.715544 A
8348 B -3.176872 -12.840140 3.443011 B
8349 B -2.219165 -12.662730 3.505837 B
8350 B -1.552956 -12.886780 4.144988 B
8351 B -0.758146 -12.898010 4.698064 B
8352 B -1.279872 -12.572740 5.472970 B
8353 B -1.910246 -11.996580 5.950912 B
8354 B -2.516576 -11.924200 5.211489 B
8355 A -2.493183 -11.342100 4.390146 A
8356 A -3.010947 -10.539790 4.655144 A
8357 A -3.243562 -9.620707 4.523453 A
8358 A -2.789994 -8.994231 5.069678 A
8359 A -2.787599 -8.745641 5.996731 A
8360 A -2.640962 -9.204573 6.865177 A
8361 A -1.812841 -2.905896 -7.938416 A
8362 A -1.938745 -3.137852 -8.852148 A
8363 A -0.995337 -2.976185 -8.757448 A
8364 A -1.360260 -2.087823 -8.578247 A
8365 A -1.982761 -1.472402 -8.975439 A
8366 A -2.511572 -0.703462 -9.148438 A
8367 B -1.850262 -0.103336 -8.762295 B
8368 B -1.229801 0.401140 -8.245191 B
8369 B -0.444850 -0.162639 -8.082566 B
8370 B -0.404031 -1.065562 -7.783409 B
8371 B -0.603954 -1.848500 -7.298129 B
8372 B -0.260337 -2.206642 -6.489041 B
8373 B -0.757219 -2.791280 -5.901102 B
8374 A -1.365797 -2.083597 -5.700385 A
8375 A -2.063129 -2.148681 -5.074777 A
8376 A -2.034670 -1.213124 -4.889105 A
8377 A -1.177367 -1.151328 -4.567478 A
8378 A -0.482783 -0.722098 -4.035065 A
8379 A 0.008146 -0.026178 -3.588030 A
8380 A 9.183289 -5.105942 -3.106616 A
8381 A 8.638933 -4.586947 -3.674937 A
8382 A 7.754481 -4.728127 -3.298437 A
8383 A 7.587305 -5.514206 -2.781843 A
8384 A 6.817121 -5.598341 -3.407458 A
8385 A 6.763667 -4.666919 -3.150613 A
8386 B 7.181646 -4.339745 -2.346375 B
8387 B 6.699928 -4.015862 -1.605206 B
8388 B 6.198112 -4.796128 -1.906911 B
8389 B 6.178076 -5.725946 -1.900364 B
8390 B 6.633613 -6.539141 -2.061550 B
8391 B 6.730356 -7.483595 -2.265796 B
8392 B 6.990286 -8.270980 -2.729419 B
8393 A 7.753066 -8.224178 -3.329530 A
8394 A 8.697899 -8.131294 -3.215615 A
8395 A 9.291212 -7.855419 -2.522170 A
8396 A 9.323008 -7.147867 -1.894000 A
8397 A 9.864933 -6.963612 -1.112654 A
8398 A 10.005340 -6.401769 -0.308413 A
8399 A 7.969110 -2.714687 -7.132903 A
8400 A 8.149924 -2.901553 -6.209170 A
8401 A 8.544862 -2.868260 -5.343009 A
8402 A 9.474066 -2.558771 -5.408082 A
8403 A 9.641361 -3.060107 -6.207757 A
8404 A 9.527400 -3.873990 -6.724379 A
8405 B 8.757276 -4.143939 -6.226779 B
8406 B 7.979743 -4.398581 -5.721414 B
8407 B 7.591020 -5.329556 -5.822215 B
8408 B 8.175074 -5.165820 -6.558612 B
8409 B 9.064964 -5.086855 -6.974781 B
8410 B 9.552422 -5.920111 -6.863416 B
8411 B 8.813428 -6.354533 -7.281177 B
8412 A 8.274766 -6.725255 -7.988000 A
8413 A 7.585770 -6.110323 -8.285810 A
8414 A 6.921300 -5.545437 -8.684058 A
8415 A 7.397882 -4.856697 -8.187074 A
8416 A 7.180346 -4.536744 -7.295167 A
8417 A 6.957250 -4.332735 -6.373138 A
8418 A 5.604293 6.684601 6.033379 A
8419 A 4.840849 7.128614 6.381940 A
8420 A 4.518886 7.984503 6.474157 A
8421 A 4.406946 8.797337 5.983303 A
8422 A 3.883201 9.027726 5.207996 A
8423 A 4.248670 9.060687 4.308749 A
8424 B 5.086576 8.947820 3.841490 B
8425 B 5.954751 8.624143 3.642453 B
8426 B 6.802882 8.336866 3.950718 B
8427 B 7.587382 8.822968 3.828706 B
8428 B 7.549735 9.712401 3.388951 B
8429 B 7.221692 10.545900 3.755138 B
8430 B 7.160754 11.434860 4.102565 B
8431 A 6.529516 11.240710 4.764262 A
8432 A 6.093324 12.010570 4.231679 A
8433 A 5.788100 11.600180 3.409990 A
8434 A 5.575468 11.261910 2.576012 A
8435 A 6.028449 10.365540 2.523247 A
8436 A 6.304776 9.441191 2.394604 A
8437 A -3.387933 -8.666926 8.907864 A
8438 A -3.222969 -8.556437 9.835828 A
8439 A -3.694875 -8.793118 10.619830 A
8440 A -4.051441 -9.307279 11.332160 A
8441 A -4.681380 -8.638841 11.614550 A
8442 A -4.450270 -7.690180 11.729240 A
8443 B -3.950563 -6.945715 12.075160 B
8444 B -3.294822 -6.279277 12.236660 B
8445 B -2.660865 -5.665889 11.827450 B
8446 B -2.972213 -5.333151 10.991860 B
8447 B -3.166602 -5.677985 10.110130 B
8448 B -2.849318 -6.597447 10.280760 B
8449 B -2.430424 -6.932423 11.066840 B
8450 A -2.263228 -6.621883 11.998530 A
8451 A -2.073302 -6.769909 12.873640 A
8452 A -1.321181 -6.285110 13.208220 A
8453 A -0.821460 -5.490343 13.289110 A
8454 A -0.708554 -4.629363 -13.402050 A
8455 A -0.526572 -3.808892 -12.968320 A
8456 A 1.649476 -3.889986 -8.765139 A
8457 A 1.079540 -3.180682 -8.432384 A
8458 A 0.992204 -2.245366 -8.343878 A
8459 A 0.901787 -1.464267 -7.747049 A
8460 A 0.941285 -1.198857 -6.795659 A
8461 A -0.017480 -1.152700 -6.527974 A
8462 B -0.966663 -1.257344 -6.406784 B
8463 B -1.695362 -1.759309 -6.773615 B
8464 B -2.137341 -1.856325 -7.595707 B
8465 B -2.799661 -2.355884 -8.054228 B
8466 B -3.074273 -3.168984 -8.545047 B
8467 B -2.633823 -3.972196 -8.729893 B
8468 B -1.785664 -4.346040 -8.740432 B
8469 A -1.450450 -5.058409 -9.313114 A
8470 A -1.395539 -6.043326 -9.280230 A
8471 A -1.539332 -6.718104 -8.603549 A
8472 A -2.285161 -6.156553 -8.503782 A
8473 A -1.594239 -5.528439 -8.230516 A
8474 A -0.643641 -5.535726 -7.945645 A
8475 A 13.236360 -7.382334 -5.506860 A
8476 A 12.641360 -6.823651 -5.045564 A
8477 A 12.322290 -6.007400 -4.590432 A
8478 A 12.558920 -5.122017 -4.269090 A
8479 A 12.707870 -4.176304 -4.009783 A
8480 A 12.908970 -3.524240 -3.333119 A
8481 B 12.331690 -4.168252 -2.875900 B
8482 B 12.192640 -4.862527 -2.160398 B
8483 B 11.746810 -5.482914 -1.559844 B
8484 B 11.911420 -5.139609 -0.711149 B
8485 B 11.921390 -4.184565 -0.803441 B
8486 B 11.576350 -3.339714 -0.541744 B
8487 B 11.021440 -2.760357 -0.062254 B
8488 A 10.516950 -2.204153 0.521006 A
8489 A 10.429180 -1.607416 1.317560 A
8490 A 11.108120 -1.313338 1.909781 A
8491 A 11.466850 -2.113015 2.304959 A
8492 A 11.831210 -2.939550 2.033255 A
8493 A 12.504750 -3.183461 1.398487 A
8494 A 1.499820 -3.998873 -5.317939 A
8495 A 0.640152 -4.388123 -5.262394 A
8496 A 0.065031 -3.954236 -5.874034 A
8497 A 0.334147 -3.303504 -5.197958 A
8498 A 0.022181 -3.140827 -4.300033 A
8499 A -0.819749 -3.013242 -3.813466 A
8500 B -1.501583 -3.732750 -3.717273 B
8501 B -1.700685 -3.161798 -2.952406 B
8502 B -1.752886 -2.288556 -2.568131 B
8503 B -1.736597 -1.582137 -1.881108 B
8504 B -2.644304 -1.248485 -2.072237 B
8505 B -3.118368 -0.406263 -1.987769 B
8506 B -3.515919 0.281791 -2.523991 B
8507 A -3.836644 0.538723 -1.647126 A
8508 A -4.699853 0.158697 -1.869058 A
8509 A -5.240161 0.514173 -2.616949 A
8510 A -5.697997 0.839500 -3.414115 A
8511 A -5.600798 1.652341 -3.886405 A
8512 A -5.209589 2.201544 -4.579638 A
8513 A -3.552125 9.103242 9.674117 A
8514 A -3.131490 8.514749 10.291450 A
8515 A -2.778075 7.824431 10.888500 A
8516 A -2.611664 7.523645 11.806010 A
8517 A -2.822822 6.809268 12.411730 A
8518 A -3.473099 6.988553 13.117810 A
8519 B -3.565547 6.145053 12.678340 B
8520 B -3.791452 5.331205 12.227500 B
8521 B -3.519197 4.466398 12.495390 B
8522 B -3.970823 4.223728 13.321470 B
8523 B -3.671882 4.025310 -12.877670 B
8524 B -3.404875 4.697968 -12.240040 B
8525 B -3.142580 5.588029 -12.495960 B
8526 A -3.293833 5.455967 -13.414590 A
8527 A -4.229861 5.428782 -13.491120 A
8528 A -4.885882 4.739212 13.485890 A
8529 A -5.265056 3.912488 13.080450 A
8530 A -5.657305 4.198376 12.257780 A
8531 A -5.935663 4.908710 11.693260 A
8532 A 3.593017 -9.592346 10.849350 A
8533 A 3.393024 -10.401950 11.324380 A
8534 A 2.933385 -10.785700 12.094660 A
8535 A 3.048128 -11.678320 12.444860 A
8536 A 2.796897 -12.388170 13.016970 A
8537 A 2.689663 -13.282990 13.295790 A
8538 B 2.812841 12.940370 12.945380 B
8539 B 2.637337 12.607950 12.066170 B
8540 B 3.218091 12.731630 11.300250 B
8541 B 3.740734 13.244310 10.694270 B
8542 B 4.284706 -13.080640 10.885260 B
8543 B 5.057113 -12.491500 10.753250 B
8544 B 5.088325 -11.916300 11.529710 B
8545 A 4.511984 -12.017250 12.296910 A
8546 A 4.281700 -12.051660 13.231280 A
8547 A 4.187373 -12.658890 -13.149800 A
8548 A 4.557292 -13.493510 -12.914610 A
8549 A 5.345726 13.084110 -12.804190 A
8550 A 6.127994 12.549680 -12.640800 A
8551 A 12.045600 1.730113 0.784256 A
8552 A 12.762900 1.107489 0.941047 A
8553 A 13.532350 0.620259 0.640771 A
8554 A -12.775310 0.088069 0.820141 A
8555 A -13.446870 -0.612806 1.248963 A
8556 A 12.846320 -0.414847 1.810237 A
8557 B 12.556530 -1.177695 1.190307 B
8558 B 12.939020 -1.695921 0.443544 B
8559 B -13.018890 -1.829750 0.106012 B
8560 B -12.488620 -1.602342 -0.741745 B
8561 B -12.679430 -0.834765 -1.331818 B
8562 B -12.350780 -1.528218 -1.907624 B
8563 B -13.173200 -2.039106 -1.959839 B
8564 A 13.145160 -2.579623 -1.969270 A
8565 A 13.000920 -3.531125 -2.108768 A
8566 A -13.504700 -4.230681 -2.381203 A
8567 A -13.298540 -5.072122 -2.843580 A
8568 A 13.109840 -5.564495 -3.342803 A
8569 A -13.274460 -5.371340 -3.925109 A
8570 A -11.366310 1.884249 -9.920687 A
8571 A -10.677580 1.283462 -9.576405 A
8572 A -10.024060 0.648458 -9.944385 A
8573 A -9.531004 -0.153580 -10.148970 A
8574 A -9.214544 -0.902201 -10.643020 A
8575 A -9.146574 -1.349882 -11.462860 A
8576 B -9.288657 -0.438366 -11.747970 B
8577 B -9.931208 0.139823 -11.385450 B
8578 B -10.685620 0.192153 -10.802120 B
8579 B -11.290710 0.115357 -10.061780 B
8580 B -11.608480 -0.181272 -9.221693 B
8581 B -10.792790 -0.145179 -8.660520 B
8582 B -10.260500 -0.831940 -9.156691 B
8583 A -10.101290 -1.705270 -9.583058 A
8584 A -10.590150 -1.223007 -10.227510 A
8585 A -11.090250 -1.356371 -11.038290 A
8586 A -11.954110 -1.798056 -11.147620 A
8587 A -12.806380 -2.101434 -10.851430 A
8588 A -12.949550 -1.805621 -9.949700 A
8589 A 11.208430 0.683769 5.176555 A
8590 A 10.987220 1.271152 5.938003 A
8591 A 11.733060 1.773536 6.325039 A
8592 A 12.116920 1.857274 7.182860 A
8593 A 12.601950 1.178543 7.650940 A
8594 A 12.977700 0.263448 7.516921 A
8595 B 13.191940 -0.621855 7.131821 B
8596 B -13.441560 -1.337140 7.617385 B
8597 B 13.527510 -1.024909 8.510287 B
8598 B 13.259000 -0.298209 9.101012 B
8599 B 13.279460 0.593054 8.709933 B
8600 B 13.453770 1.396431 8.266006 B
8601 B 12.906520 2.194729 8.425024 B
8602 A 13.000470 1.852085 9.342136 A
8603 A -13.173340 1.681935 9.523433 A
8604 A -12.360750 1.978924 9.936749 A
8605 A -12.274370 2.916422 9.841594 A
8606 A -11.531040 3.534548 9.846032 A
8607 A -10.598310 3.713040 9.871866 A
8608 A 2.755814 12.462700 1.418706 A
8609 A 2.979316 13.082610 0.820777 A
8610 A 2.328244 13.440650 0.247247 A
8611 A 2.027225 13.537200 -0.693057 A
8612 A 1.318515 -13.440290 -1.278224 A
8613 A 1.486055 -12.775350 -2.027893 A
8614 B 1.627151 -11.940900 -1.621719 B
8615 B 1.871402 -11.503780 -2.403706 B
8616 B 2.551447 -10.821090 -2.500419 B
8617 B 3.120245 -10.233720 -3.000262 B
8618 B 3.803108 -9.846038 -3.506489 B
8619 B 4.590893 -9.352438 -3.618813 B
8620 B 5.371822 -9.344264 -3.096159 B
8621 A 5.487401 -9.149994 -2.162022 A
8622 A 5.948442 -9.218814 -1.268187 A
8623 A 6.215364 -8.638887 -0.568719 A
8624 A 5.687328 -7.937834 -0.224155 A
8625 A 5.172505 -7.630911 0.536590 A
8626 A 5.178936 -6.644534 0.390892 A
8627 A 11.652650 -6.182618 12.321680 A
8628 A 11.922720 -7.078423 12.644110 A
8629 A 11.683100 -7.917974 13.114190 A
8630 A 12.224740 -8.621067 12.797920 A
8631 A 12.461050 -8.885109 11.892940 A
8632 A 12.442370 -8.829949 10.929060 A
8633 B 12.140140 -9.521023 10.336420 B
8634 B 11.727820 -9.716582 11.216710 B
8635 B 10.884480 -9.537701 11.644450 B
8636 B 10.290420 -8.938787 11.140940 B
8637 B 10.142210 -8.936092 10.176320 B
8638 B 10.305040 -9.171034 9.243102 B
8639 B 11.219520 -8.986393 9.009356 B
8640 A 12.039380 -8.485888 8.864865 A
8641 A 11.820350 -7.619846 8.515491 A
8642 A 11.807490 -6.918498 7.828249 A
8643 A 11.907370 -6.110257 7.360545 A
8644 A 12.504000 -5.341267 7.512635 A
8645 A 13.374850 -5.116197 7.831093 A
8646 A 1.293864 3.538632 -9.632646 A
8647 A 0.698565 3.241381 -10.339200 A
8648 A 0.074977 2.703162 -10.856080 A
8649 A -0.592038 2.958375 -11.529720 A
8650 A -1.447511 3.165534 -11.163930 A
8651 A -2.247103 3.641466 -10.960300 A
8652 B -3.184030 3.920006 -10.763250 B
8653 B -3.801798 4.053615 -10.039150 B
8654 B -4.245531 4.036565 -9.201315 B
8655 B -5.112432 3.604944 -9.155245 B
8656 B -4.982283 3.331308 -10.122180 B
8657 B -5.106563 2.761882 -10.909370 B
8658 B -5.945140 2.375384 -11.034650 B
8659 A -6.637201 2.968875 -10.775970 A
8660 A -6.795392 2.620169 -9.920004 A
8661 A -6.110808 3.334568 -9.809991 A
8662 A -5.852888 2.612356 -9.281624 A
8663 A -5.961810 1.669641 -9.064128 A
8664 A -6.831565 1.656839 -8.720992 A
8665 A 11.480950 -13.436890 6.160877 A
8666 A 12.024350 13.266470 6.872707 A
8667 A 12.477990 -13.023730 7.073116 A
8668 A 12.692760 -12.704180 6.213249 A
8669 A 11.797790 -12.371950 6.197032 A
8670 A 11.342910 -12.254810 5.330830 A
8671 B 11.459660 -12.628040 4.423491 B
8672 B 11.113860 -13.429760 4.053214 B
8673 B 10.802150 12.789560 3.865753 B
8674 B 10.544050 11.921680 3.560921 B
8675 B 10.931690 11.159010 3.110451 B
8676 B 11.393070 11.885220 2.775665 B
8677 B 12.091850 12.529760 2.704304 B
8678 A 12.728710 12.396410 1.977677 A
8679 A 12.231010 11.607760 1.789958 A
8680 A 11.511770 12.205080 1.632550 A
8681 A 12.003900 12.167710 0.817091 A
8682 A 12.667300 12.247990 0.149550 A
8683 A 13.380010 12.703660 -0.302590 A
8684 A 8.623013 -3.099809 6.512280 A
8685 A 8.705541 -3.593117 7.343943 A
8686 A 8.291546 -4.058558 7.973554 A
8687 A 8.031336 -4.373657 8.875963 A
8688 A 8.926929 -4.075132 9.141519 A
8689 A 8.772830 -4.127358 10.026400 A
8690 B 9.114994 -3.377451 10.517390 B
8691 B 9.542175 -2.740469 10.987720 B
8692 B 9.310111 -1.797428 11.120860 B
8693 B 9.153002 -1.696374 10.196180 B
8694 B 9.453389 -2.575562 10.004090 B
8695 B 9.407395 -2.426644 9.028764 B
8696 B 10.411550 -2.196618 9.077741 B
8697 A 10.329040 -1.526064 8.396372 A
8698 A 11.128690 -1.033499 8.249920 A
8699 A 11.097030 -0.146829 8.146816 A
8700 A 11.138120 -0.292735 7.171433 A
8701 A 10.297630 -0.121354 6.652679 A
8702 A 9.597101 0.531799 6.877299 A
8703 A 6.910604 0.813817 0.458826 A
8704 A 7.362829 1.176989 1.223598 A
8705 A 8.124901 1.473580 1.736368 A
8706 A 9.078074 1.460983 1.986665 A
8707 A 9.816122 1.729916 1.376196 A
8708 A 9.142158 1.904596 0.689378 A
8709 B 8.267830 1.575921 0.400821 B
8710 B 8.077965 0.649140 0.466301 B
8711 B 8.797820 0.452216 1.023978 B
8712 B 9.530260 0.349528 1.642323 B
8713 B 9.734862 0.269154 2.568216 B
8714 B 9.089313 -0.433036 2.683212 B
8715 B 8.687444 -0.710217 1.825883 B
8716 A 7.883483 -0.125391 1.897586 A
8717 A 6.980790 -0.399731 1.686569 A
8718 A 7.464972 -1.144313 2.103922 A
8719 A 7.617799 -1.972449 1.692913 A
8720 A 7.853000 -1.622100 0.832478 A
8721 A 7.666821 -1.357643 -0.026885 A
8722 A 4.242350 -7.961544 -11.743870 A
8723 A 3.486610 -8.514503 -11.998430 A
8724 A 2.585534 -8.780493 -11.953560 A
8725 A 1.722369 -9.181037 -11.930550 A
8726 A 1.238727 -10.008970 -11.787990 A
8727 A 1.617036 -10.075110 -12.670920 A
8728 B 2.376426 -9.698056 -13.146110 B
8729 B 3.022281 -9.682183 13.213390 B
8730 B 3.348342 -9.702559 12.326200 B
8731 B 3.012931 -9.209597 11.608690 B
8732 B 2.212060 -9.372056 12.141550 B
8733 B 1.352416 -9.172991 12.534970 B
8734 B 0.436540 -9.343186 12.564360 B
8735 A 0.193351 -8.504217 12.999150 A
8736 A 0.269147 -7.582781 13.317800 A
8737 A 0.285329 -6.707181 12.974500 A
8738 A 0.518413 -5.938902 12.415020 A
8739 A -0.321665 -5.520574 12.114890 A
8740 A -1.097471 -5.483335 11.561410 A
8741 A 1.791425 -6.921958 -4.318659 A
8742 A 2.055700 -7.584732 -3.599928 A
8743 A 1.575213 -8.380640 -3.950768 A
8744 A 0.680802 -8.709893 -3.937504 A
8745 A 0.172931 -9.489796 -3.938856 A
8746 A 0.292701 -10.221710 -4.551254 A
8747 B 0.536300 -9.412699 -4.901086 B
8748 B 0.177452 -8.516693 -4.938345 B
8749 B -0.658520 -8.398008 -5.335947 B
8750 B -0.914180 -8.068039 -6.229852 B
8751 B -0.747486 -7.225822 -6.574716 B
8752 B 0.046858 -6.633049 -6.655562 B
8753 B 0.864124 -6.849852 -7.197700 B
8754 A 1.519259 -7.381106 -7.734345 A
8755 A 1.864066 -8.281641 -7.671737 A
8756 A 1.541488 -9.182889 -7.563808 A
8757 A 1.312943 -9.894654 -6.960330 A
8758 A 0.754029 -9.975739 -6.179767 A
8759 A -0.178249 -9.921748 -5.981074 A
8760 A -5.502596 -3.293063 5.428128 A
8761 A -6.261193 -3.516780 4.907288 A
8762 A -6.814140 -3.715654 4.176837 A
8763 A -6.650033 -4.440537 3.614190 A
8764 A -7.267513 -4.967539 3.103091 A
8765 A -7.685152 -4.618154 3.911115 A
8766 B -8.013979 -3.847017 4.325835 B
8767 B -7.651386 -3.360051 5.087523 B
8768 B -6.933681 -3.100092 5.656586 B
8769 B -6.859227 -2.380928 5.028640 B
8770 B -6.998036 -2.224280 4.086843 B
8771 B -6.735572 -2.284336 3.154454 B
8772 B -6.605479 -2.986137 2.513055 B
8773 A -6.628767 -3.644397 1.834406 A
8774 A -7.321318 -4.202840 2.192062 A
8775 A -7.969821 -3.496955 2.208753 A
8776 A -8.088818 -2.636874 1.806943 A
8777 A -7.630971 -1.804734 2.071820 A
8778 A -6.748529 -1.517743 1.806145 A
8779 A 3.824452 1.419797 -8.202682 A
8780 A 4.638220 1.896663 -8.046850 A
8781 A 5.464789 2.071021 -7.556940 A
8782 A 6.333136 2.496897 -7.715641 A
8783 A 6.448666 3.109884 -8.491416 A
8784 A 5.916413 2.356868 -8.692184 A
8785 B 5.380506 1.568043 -8.723632 B
8786 B 4.821268 0.823653 -8.882887 B
8787 B 5.639095 0.300505 -8.646194 B
8788 B 6.115288 -0.141723 -7.949370 B
8789 B 5.667199 -0.287939 -7.075021 B
8790 B 5.631870 0.147782 -6.255266 B
8791 B 6.042999 0.545969 -5.511615 B
8792 A 5.922322 1.203179 -4.825284 A
8793 A 6.584790 1.952435 -4.726532 A
8794 A 6.136247 2.760161 -5.137337 A
8795 A 5.517131 3.336224 -5.552523 A
8796 A 4.704513 3.554711 -5.931200 A
8797 A 3.890354 3.923769 -6.358813 A
8798 A -9.058631 -9.215509 -10.167430 A
8799 A -9.373140 -10.097530 -10.362260 A
8800 A -9.607495 -10.604410 -11.140300 A
8801 A -9.265257 -10.820160 -12.015050 A
8802 A -8.523156 -11.091640 -12.548640 A
8803 A -7.667153 -10.833850 -12.234530 A
8804 B -7.115112 -10.183290 -11.808240 B
8805 B -6.768104 -9.605843 -11.121650 B
8806 B -6.139007 -10.306740 -11.218630 B
8807 B -5.627795 -10.699400 -11.935940 B
8808 B -6.061847 -11.214850 -12.620160 B
8809 B -5.883471 -11.021160 -13.539110 B
8810 B -5.017698 -10.665980 13.336850 B
8811 A -4.367747 -10.954130 -13.101690 A
8812 A -3.604666 -11.005980 -12.559620 A
8813 A -3.009033 -11.622520 -12.169320 A
8814 A -3.255112 -12.437980 -12.606880 A
8815 A -3.003276 -13.229070 -13.130900 A
8816 A -2.993456 13.247220 13.226900 A
8817 A -10.061720 -5.872407 -6.750787 A
8818 A -9.813441 -6.720356 -6.307951 A
8819 A -10.049380 -6.768992 -5.336829 A
8820 A -9.636802 -6.163619 -4.717667 A
8821 A -9.447340 -5.556873 -4.030543 A
8822 A -9.407556 -4.789263 -4.704099 A
8823 B -9.198067 -4.177501 -5.484616 B
8824 B -9.150830 -4.149116 -6.390123 B
8825 B -9.693554 -3.908093 -7.120340 B
8826 B -10.259930 -3.350824 -7.667950 B
8827 B -10.651680 -2.498912 -7.778344 B
8828 B -11.504850 -2.675852 -8.171518 B
8829 B -12.193260 -2.145369 -8.650224 B
8830 A -11.959750 -1.337944 -9.155520 A
8831 A -11.303320 -1.906875 -9.621000 A
8832 A -11.135760 -2.759640 -9.950397 A
8833 A -10.303640 -3.157872 -10.312710 A
8834 A -10.436560 -3.732769 -9.479547 A
8835 A -9.832668 -3.916138 -8.753224 A
8836 A -0.178967 7.787893 -4.895885 A
8837 A 0.481003 8.279003 -5.377554 A
8838 A 0.935041 8.422677 -6.256448 A
8839 A 1.665030 9.070068 -6.177030 A
8840 A 1.650711 9.689768 -5.450847 A
8841 A 1.944638 10.584420 -5.513620 A
8842 B 2.877517 10.474950 -5.316719 B
8843 B 3.268978 9.644900 -5.596761 B
8844 B 3.903991 9.001253 -5.906911 B
8845 B 4.563313 9.032049 -6.606627 B
8846 B 5.303937 9.629898 -6.450259 B
8847 B 5.423882 10.376040 -5.877850 B
8848 B 4.698158 10.109590 -5.238184 B
8849 A 3.881171 10.009610 -4.752320 A
8850 A 3.217918 10.183160 -4.111756 A
8851 A 3.755200 10.991070 -4.175109 A
8852 A 4.134851 11.910420 -4.141552 A
8853 A 3.512323 12.090110 -3.451838 A
8854 A 2.738294 11.516890 -3.340221 A
8855 A 2.995988 -0.372131 -11.860220 A
8856 A 2.969449 -1.244737 -11.454910 A
8857 A 2.594292 -2.128043 -11.345740 A
8858 A 3.157981 -2.179567 -10.542130 A
8859 A 3.528103 -1.917928 -9.692377 A
8860 A 3.185591 -2.813002 -9.520847 A
8861 B 3.247972 -3.128225 -8.603295 B
8862 B 2.436234 -2.671033 -8.384036 B
8863 B 1.921075 -2.701226 -9.200702 B
8864 B 1.356367 -2.214364 -9.799583 B
8865 B 1.243648 -2.071984 -10.739140 B
8866 B 1.590277 -1.365367 -11.282770 B
8867 B 1.006065 -1.380866 -12.032930 B
8868 A 0.647583 -0.719856 -11.461700 A
8869 A 0.659008 -0.586168 -10.466440 A
8870 A -0.105988 -0.215546 -10.043660 A
8871 A -0.849162 0.041192 -9.476694 A
8872 A -1.279248 -0.577203 -10.010720 A
8873 A -1.076216 -1.527062 -9.985454 A
8874 A -5.580173 -12.623510 -13.222650 A
8875 A -6.380240 -12.546190 13.345320 A
8876 A -7.232755 -12.116450 13.364100 A
8877 A -7.550003 -11.949520 -12.842870 A
8878 A -7.292973 -12.095220 -11.918280 A
8879 A -6.868094 -12.910880 -12.177760 A
8880 B -6.043476 -13.295710 -11.888810 B
8881 B -5.277814 13.252260 -11.846020 B
8882 B -4.888497 12.612810 -11.221390 B
8883 B -4.540684 12.268120 -10.386400 B
8884 B -4.448464 12.146400 -9.460668 B
8885 B -5.308023 12.364270 -9.122023 B
8886 B -5.807743 13.038260 -9.595824 B
8887 A -6.752706 13.198340 -9.431854 A
8888 A -6.936502 12.749250 -8.604247 A
8889 A -7.520218 12.314930 -8.001470 A
8890 A -7.027647 12.788730 -7.285764 A
8891 A -6.111646 12.772900 -7.545382 A
8892 A -5.848562 13.081370 -8.461430 A
8893 A 11.825750 -12.694950 2.882429 A
8894 A 11.226610 -12.849990 2.161396 A
8895 A 10.286350 -12.728320 1.879830 A
8896 A 9.632936 -11.951140 1.772566 A
8897 A 9.329918 -11.016050 1.920943 A
8898 A 8.531780 -10.714550 1.495472 A
8899 B 7.738592 -11.262870 1.299956 B
8900 B 7.413101 -12.170180 1.143478 B
8901 B 6.988266 -12.997820 1.371127 B
8902 B 6.989306 13.301890 0.794167 B
8903 B 7.353090 12.721260 0.098455 B
8904 B 7.790267 11.911770 -0.091428 B
8905 B 8.627576 11.448630 0.115771 B
8906 A 9.191972 10.629850 0.086355 A
8907 A 9.777352 9.927567 -0.054593 A
8908 A 10.366520 9.579952 -0.716742 A
8909 A 10.781020 9.751203 -1.565649 A
8910 A 11.024470 10.298430 -2.300124 A
8911 A 10.699290 11.185210 -2.404279 A
8912 A 5.698556 -4.173836 -3.007396 A
8913 A 5.512621 -3.535777 -2.294766 A
8914 A 5.418144 -2.639098 -1.982753 A
8915 A 5.840263 -2.322999 -1.225909 A
8916 A 5.978512 -3.164889 -0.797148 A
8917 A 5.685964 -4.079584 -1.173354 A
8918 B 4.834741 -3.805099 -1.495299 B
8919 B 4.315175 -3.102898 -1.041683 B
8920 B 3.728583 -3.326728 -0.336586 B
8921 B 3.805565 -4.232610 -0.654849 B
8922 B 4.446524 -4.858155 -0.283885 B
8923 B 4.351546 -5.698149 0.190987 B
8924 B 3.458785 -5.985820 0.068919 B
8925 A 3.161951 -5.091787 0.033896 A
8926 A 2.534266 -4.355475 0.060529 A
8927 A 1.741115 -3.775869 0.360377 A
8928 A 1.665609 -2.923573 0.799611 A
8929 A 1.901581 -2.504454 -0.035436 A
8930 A 2.329730 -2.137079 -0.873999 A
8931 A -9.413479 5.676924 4.283632 A
8932 A -9.605080 6.527171 4.788309 A
8933 A -9.885692 7.091280 4.078555 A
8934 A -10.607350 7.226736 3.506298 A
8935 A -10.344510 6.307653 3.261560 A
8936 A -9.918178 6.153899 2.415716 A
8937 B -8.995153 6.103589 2.141121 B
8938 B -8.147771 6.438401 2.349902 B
8939 B -8.315162 6.122400 3.228862 B
8940 B -8.146715 5.295279 3.688439 B
8941 B -7.246851 5.640872 3.658693 B
8942 B -6.622221 5.991977 4.285415 B
8943 B -5.918267 6.593535 4.432218 B
8944 A -5.693401 6.470281 5.342481 A
8945 A -5.462628 5.958757 6.104876 A
8946 A -5.965487 5.898167 6.910530 A
8947 A -6.516583 5.216880 7.317206 A
8948 A -7.418337 4.828051 7.409548 A
8949 A -8.151058 5.024374 8.006753 A
8950 A -10.660720 -8.893905 9.936048 A
8951 A -9.820339 -8.734463 9.546744 A
8952 A -8.892739 -8.779154 9.297493 A
8953 A -8.282360 -9.222745 8.678288 A
8954 A -8.702161 -10.078950 8.489230 A
8955 A -8.962795 -10.698600 7.807604 A
8956 B -9.321600 -11.388570 7.199052 B
8957 B -10.040530 -10.791900 7.404345 B
8958 B -10.168660 -9.978864 7.876447 B
8959 B -10.646780 -9.380366 8.456122 B
8960 B -11.169130 -9.543470 9.244576 B
8961 B -11.204590 -10.402360 9.686683 B
8962 B -11.524220 -11.227810 10.128610 B
8963 A -11.455380 -12.183660 10.171680 A
8964 A -10.668400 -12.420040 9.666897 A
8965 A -9.998425 -11.905110 10.090750 A
8966 A -9.651738 -11.750060 9.192634 A
8967 A -9.891566 -12.234530 8.422023 A
8968 A -10.747660 -12.518370 8.004393 A
8969 A -4.608877 8.594193 -4.375728 A
8970 A -3.692171 8.752228 -4.653255 A
8971 A -2.994002 8.404207 -4.037630 A
8972 A -3.566776 8.084979 -3.372400 A
8973 A -4.292940 8.052659 -2.751089 A
8974 A -5.122293 8.065072 -2.228120 A
8975 B -4.767357 8.108897 -1.374258 B
8976 B -4.654094 9.020627 -1.106042 B
8977 B -4.763243 9.650193 -1.830110 B
8978 B -4.195636 10.217830 -2.355983 B
8979 B -3.747173 10.136770 -3.197120 B
8980 B -3.409410 10.838890 -3.765279 B
8981 B -3.598917 11.510600 -3.099925 B
8982 A -3.941948 12.107040 -2.406943 A
8983 A -4.395387 12.868300 -2.028394 A
8984 A -5.293403 12.727320 -1.698253 A
8985 A -5.073684 13.032440 -0.806050 A
8986 A -4.290211 12.559160 -0.582288 A
8987 A -3.779556 12.079910 0.050117 A
8988 A 5.057904 -4.262216 7.901203 A
8989 A 4.700849 -3.368765 7.987156 A
8990 A 5.265806 -2.894279 8.622585 A
8991 A 5.281214 -2.069694 9.107822 A
8992 A 4.921319 -1.586405 9.870852 A
8993 A 4.081350 -2.017617 9.873900 A
8994 B 4.342274 -2.747795 10.258040 B
8995 B 3.432787 -2.970108 9.721658 B
8996 B 2.799285 -2.849106 9.128708 B
8997 B 3.245971 -3.418453 8.358591 B
8998 B 2.453938 -3.812067 8.045028 B
8999 B 1.563229 -3.990608 8.198777 B
9000 B 0.662386 -4.411542 8.441066 B
9001 A -0.055754 -4.118716 7.859493 A
9002 A -0.819924 -4.788990 8.030293 A
9003 A -1.760073 -4.592772 7.953002 A
9004 A -2.525254 -4.513589 8.454303 A
9005 A -3.438970 -4.663009 8.724186 A
9006 A -3.201401 -3.770344 9.018469 A
9007 A 0.449981 11.242320 -6.987190 A
9008 A 0.257570 10.585180 -7.607754 A
9009 A 1.203386 10.477730 -7.755575 A
9010 A 2.057196 10.063920 -7.823413 A
9011 A 1.477487 9.413987 -8.136714 A
9012 A 1.147243 9.993833 -8.780585 A
9013 B 1.169187 10.270040 -9.718772 B
9014 B 0.500516 9.470740 -9.451089 B
9015 B -0.066344 9.141159 -8.728786 B
9016 B 0.347418 8.698103 -8.071660 B
9017 B 0.853468 8.226666 -7.465425 B
9018 B -0.072685 8.265872 -7.054891 B
9019 B -0.695847 8.574411 -7.756325 B
9020 A -0.491824 8.032134 -8.524377 A
9021 A 0.171400 8.052863 -9.225133 A
9022 A 1.127149 8.171247 -9.067755 A
9023 A 1.864092 8.097961 -9.640056 A
9024 A 2.591007 7.923279 -10.241960 A
9025 A 2.542889 8.162852 -11.171000 A
9026 A 6.066090 10.276830 10.890740 A
9027 A 5.818883 10.187260 9.994089 A
9028 A 5.649255 9.935461 9.093334 A
9029 A 5.353817 9.999571 8.191425 A
9030 A 4.646450 9.683629 7.655584 A
9031 A 3.914672 9.110589 7.423950 A
9032 B 3.188132 8.489491 7.255915 B
9033 B 3.478753 7.592265 7.144079 B
9034 B 3.288116 6.529521 6.954066 B
9035 B 3.709536 5.786506 7.282891 B
9036 B 4.353526 5.905941 8.009257 B
9037 B 5.061439 6.246319 8.546803 B
9038 B 5.686395 5.751640 9.187872 B
9039 A 6.068788 6.599956 9.546501 A
9040 A 6.151785 7.458954 9.249179 A
9041 A 5.817008 7.347006 8.397694 A
9042 A 5.176682 8.105561 8.290691 A
9043 A 4.188649 7.815138 8.541780 A
9044 A 3.448460 7.501350 9.097254 A
9045 A -4.937119 12.309630 6.018403 A
9046 A -4.871459 11.745910 6.793895 A
9047 A -4.823025 12.683860 7.051471 A
9048 A -4.921547 -13.529710 7.452063 A
9049 A -5.331151 -12.726800 7.187943 A
9050 A -5.979721 -12.210100 7.663591 A
9051 B -6.616165 -11.693780 8.216573 B
9052 B -7.552481 -11.802100 8.362943 B
9053 B -8.154579 -11.731340 7.631553 B
9054 B -7.677164 -11.601080 6.819962 B
9055 B -7.574432 -12.536850 6.961652 B
9056 B -7.406477 -13.173560 7.658798 B
9057 B -7.282639 -13.484360 8.560837 B
9058 A -7.005797 12.993590 7.932086 A
9059 A -6.749253 12.331500 7.305524 A
9060 A -6.631907 12.178260 6.374949 A
9061 A -6.180996 12.997310 6.106096 A
9062 A -6.134327 13.444660 6.959200 A
9063 A -5.841914 13.184860 7.835614 A
9064 A 2.558500 -7.157449 -5.242968 A
9065 A 2.188352 -7.418144 -6.095781 A
9066 A 1.635971 -6.744957 -6.510235 A
9067 A 0.905924 -7.255988 -6.137822 A
9068 A 0.045601 -7.507600 -5.843099 A
9069 A 0.264508 -8.427130 -6.025622 A
9070 B 0.492354 -9.131361 -6.762327 B
9071 B 0.504123 -9.719495 -7.659177 B
9072 B 0.490677 -10.370180 -8.395142 B
9073 B 0.436353 -10.756430 -9.295583 B
9074 B 0.474144 -9.919264 -9.730811 B
9075 B 1.275089 -9.810231 -9.207671 B
9076 B 2.109486 -9.949760 -9.624380 B
9077 A 2.892177 -9.801394 -10.166510 A
9078 A 3.653801 -10.387420 -10.319490 A
9079 A 4.097037 -11.190410 -10.709670 A
9080 A 4.075668 -12.028730 -10.206370 A
9081 A 4.597213 -11.846840 -9.425434 A
9082 A 4.518700 -12.603310 -8.805287 A
9083 A -9.967870 4.477540 -2.337943 A
9084 A -9.971784 4.948933 -1.506303 A
9085 A -9.697939 4.037858 -1.244275 A
9086 A -9.857063 3.386618 -1.917255 A
9087 A -10.304280 3.224394 -2.750835 A
9088 A -10.158160 2.710089 -3.589876 A
9089 B -9.726848 1.915525 -3.888038 B
9090 B -9.128051 1.311496 -3.509527 B
9091 B -8.208776 1.205108 -3.744236 B
9092 B -7.392138 1.687602 -4.004031 B
9093 B -7.503701 2.389703 -3.390916 B
9094 B -7.768657 2.432737 -2.477325 B
9095 B -7.135805 3.014519 -2.066422 B
9096 A -6.390936 2.746331 -2.606321 A
9097 A -5.755787 2.064959 -2.348654 A
9098 A -4.996611 1.938544 -1.735006 A
9099 A -4.631411 1.870146 -0.816389 A
9100 A -4.138329 1.204017 -0.427846 A
9101 A -3.724603 0.836971 0.370749 A
9102 A 7.508166 -2.298683 -2.018351 A
9103 A 6.882080 -2.168213 -2.695735 A
9104 A 6.468152 -2.881393 -3.191772 A
9105 A 6.129041 -3.155452 -4.050854 A
9106 A 5.547422 -3.644795 -4.642290 A
9107 A 5.128977 -4.238253 -5.248424 A
9108 B 5.109528 -4.544071 -6.154100 B
9109 B 5.518139 -5.291595 -6.548251 B
9110 B 5.692106 -5.811780 -5.769538 B
9111 B 5.616561 -6.692161 -6.147537 B
9112 B 6.413062 -6.776982 -6.667642 B
9113 B 6.678491 -7.201447 -7.488071 B
9114 B 7.405528 -7.370968 -8.100498 B
9115 A 7.956502 -7.718186 -8.831621 A
9116 A 8.653019 -8.228899 -8.407384 A
9117 A 8.943136 -8.736399 -7.640087 A
9118 A 9.109711 -9.256565 -6.839862 A
9119 A 9.565460 -9.399370 -5.989417 A
9120 A 10.437540 -8.997375 -5.828196 A
9121 A 11.388050 7.493073 7.652421 A
9122 A 10.601200 7.144496 8.083040 A
9123 A 9.674797 7.201920 8.301847 A
9124 A 9.053334 7.341734 9.036354 A
9125 A 8.433723 8.014862 9.340079 A
9126 A 8.043132 8.308713 8.517989 A
9127 B 8.189329 7.892034 7.645370 B
9128 B 8.998005 8.069613 7.146699 B
9129 B 9.669446 8.615907 7.526637 B
9130 B 10.412540 8.378567 8.085472 B
9131 B 10.714680 8.127297 8.975275 B
9132 B 11.089390 7.537456 9.637803 B
9133 B 11.358570 6.682195 10.006590 B
9134 A 12.243650 6.537572 10.360380 A
9135 A 12.805590 7.260439 10.702440 A
9136 A 11.878580 7.500485 10.815250 A
9137 A 10.939550 7.597493 11.031440 A
9138 A 10.892320 7.696582 11.974250 A
9139 A 10.876350 6.888506 12.518300 A
9140 A 0.434766 -8.726115 10.984160 A
9141 A -0.030497 -9.536589 10.995250 A
9142 A 0.331280 -10.302730 11.408920 A
9143 A 1.176184 -10.342570 11.910980 A
9144 A 1.942010 -10.328200 11.289450 A
9145 A 2.031330 -11.217800 10.884860 A
9146 B 2.271385 -11.850620 10.215420 B
9147 B 3.264302 -11.807260 10.121140 B
9148 B 4.195980 -11.527650 10.132790 B
9149 B 4.564685 -11.100300 10.964130 B
9150 B 3.798626 -11.528200 11.383860 B
9151 B 3.246572 -12.302690 11.526070 B
9152 B 3.237795 -13.293080 11.647200 B
9153 A 3.660680 13.419960 12.406720 A
9154 A 4.546423 -13.521450 12.088510 A
9155 A 5.401753 -13.397990 11.660710 A
9156 A 6.310174 -13.342580 11.376090 A
9157 A 6.298581 -12.425850 11.062130 A
9158 A 5.811371 -11.708050 10.632900 A
9159 A 7.848610 -3.723951 5.191293 A
9160 A 7.663554 -4.154644 6.036359 A
9161 A 7.396415 -4.687875 6.789508 A
9162 A 6.438838 -4.859152 6.676301 A
9163 A 5.720958 -5.301818 7.214645 A
9164 A 5.208016 -6.088521 7.185665 A
9165 B 4.582880 -6.165223 7.931099 B
9166 B 4.710851 -5.227308 7.738166 B
9167 B 3.798475 -4.944510 8.023307 B
9168 B 2.861279 -4.802001 7.968891 B
9169 B 3.092842 -5.308622 8.803122 B
9170 B 3.468933 -6.086635 9.110634 B
9171 B 2.965873 -6.791679 9.522776 B
9172 A 3.039519 -7.767624 9.389781 A
9173 A 3.094205 -7.327521 8.550171 A
9174 A 2.622987 -6.725697 8.001208 A
9175 A 1.767017 -6.313837 7.756734 A
9176 A 1.080396 -6.003643 8.338495 A
9177 A 1.195720 -6.380122 9.276591 A
9178 A 3.951748 -8.108006 8.592198 A
9179 A 3.330666 -8.272847 7.889440 A
9180 A 3.442115 -8.332109 6.928675 A
9181 A 3.456554 -9.147879 6.476240 A
9182 A 3.039377 -9.634097 5.720948 A
9183 A 2.159056 -9.968871 5.457414 A
9184 B 1.347610 -9.620543 5.721157 B
9185 B 1.063854 -8.722752 5.848457 B
9186 B 0.926600 -8.066040 6.560090 B
9187 B 1.431012 -7.915314 7.412416 B
9188 B 0.640296 -7.699463 7.948849 B
9189 B -0.158601 -7.417871 8.457806 B
9190 B -0.817736 -8.051953 8.819910 B
9191 A -1.676262 -8.323974 9.150641 A
9192 A -2.564405 -7.991634 9.143663 A
9193 A -3.398095 -7.476398 9.228546 A
9194 A -3.163638 -6.549686 9.271529 A
9195 A -2.188508 -6.747699 9.367678 A
9196 A -1.268522 -7.003041 9.469390 A
9197 A 5.146872 -0.361980 10.243140 A
9198 A 4.283435 -0.064777 10.381190 A
9199 A 3.840105 -0.775908 10.924180 A
9200 A 4.009036 -1.382683 11.704590 A
9201 A 3.248305 -0.779506 11.670960 A
9202 A 2.768095 -0.055577 12.252660 A
9203 B 3.706662 -0.192568 12.561660 B
9204 B 4.488096 0.166953 12.219360 B
9205 B 4.995509 -0.668215 12.084770 B
9206 B 5.339202 -1.577838 11.903150 B
9207 B 5.917844 -2.127714 12.527570 B
9208 B 5.829345 -2.957669 13.007490 B
9209 B 6.039606 -3.821481 13.249240 B
9210 A 5.778147 -4.296556 -13.067930 A
9211 A 5.555061 -5.241999 -12.807350 A
9212 A 4.763372 -4.872308 -12.343950 A
9213 A 4.219852 -4.510649 -13.086970 A
9214 A 3.246709 -4.460345 -13.048720 A
9215 A 2.356366 -4.406719 -12.762390 A
9216 A -13.154690 -10.186980 -0.393558 A
9217 A -13.041470 -9.724881 -1.226086 A
9218 A -13.267890 -8.841311 -0.894251 A
9219 A 13.159390 -8.602975 -0.265557 A
9220 A 13.442030 -9.118740 0.474270 A
9221 A -13.513330 -10.031940 0.763794 A
9222 B 12.955000 -10.767070 0.716373 B
9223 B 12.684330 -11.666530 0.474921 B
9224 B 12.243230 -12.457740 0.095367 B
9225 B 12.065320 -13.289880 -0.351337 B
9226 B 12.027400 13.107010 -1.009445 B
9227 B 12.255320 13.188150 -1.937946 B
9228 B 12.480920 13.309660 -2.873019 B
9229 A 13.267220 13.468460 -3.397760 A
9230 A -13.393390 -13.416380 -2.542984 A
9231 A 13.379930 -13.185410 -1.683300 A
9232 A 12.991310 -12.866260 -0.876329 A
9233 A 12.752190 -11.936590 -0.843543 A
9234 A 12.483920 -10.991530 -0.770051 A
9235 A -7.955258 12.124610 11.220990 A
9236 A -7.595921 12.301700 12.074730 A
9237 A -7.441716 13.090890 12.602910 A
9238 A -7.263735 -13.274990 13.211630 A
9239 A -7.790657 -12.929180 -13.147120 A
9240 A -8.112298 13.263610 -13.019390 A
9241 B -7.779776 12.406940 -12.864450 B
9242 B -7.066157 11.809660 -12.969420 B
9243 B -6.182726 11.839880 -13.392260 B
9244 B -6.161435 12.423830 -12.603970 B
9245 B -6.810034 12.728300 -11.981840 B
9246 B -7.322200 11.938730 -11.770910 B
9247 B -7.377703 10.972530 -11.824340 B
9248 A -6.836598 10.206760 -11.717670 A
9249 A -6.075480 10.495710 -11.224480 A
9250 A -5.220631 10.894360 -11.117900 A
9251 A -4.647696 11.573830 -11.562750 A
9252 A -4.168428 12.257270 -11.985370 A
9253 A -3.483922 12.613990 -12.574830 A
9254 A -10.345570 -4.732382 3.353240 A
9255 A -11.096860 -5.192072 2.987720 A
9256 A -11.251560 -5.619094 2.149281 A
9257 A -12.066400 -5.118635 2.054713 A
9258 A -13.011570 -4.876639 2.255065 A
9259 A -12.568600 -4.431893 3.005064 A
9260 B -11.830010 -4.031538 3.476305 B
9261 B -11.099830 -4.252438 4.079074 B
9262 B -11.645430 -4.741057 4.668556 B
9263 B -12.075140 -5.586009 4.861336 B
9264 B -11.716920 -5.819293 3.978026 B
9265 B -10.737200 -5.792719 3.924781 B
9266 B -9.996597 -6.351866 4.144254 B
9267 A -9.547024 -7.141641 4.384247 A
9268 A -9.700645 -6.621044 5.188254 A
9269 A -10.603410 -6.461507 5.552911 A
9270 A -10.636350 -7.276595 6.066632 A
9271 A -9.772274 -7.663940 5.905125 A
9272 A -8.903530 -7.265788 5.912888 A
9273 A -10.363710 4.299213 7.974087 A
9274 A -10.403700 5.205314 7.718127 A
9275 A -11.120390 5.718750 7.377067 A
9276 A -10.611740 6.412204 6.964018 A
9277 A -9.751902 6.511848 6.599215 A
9278 A -8.962877 6.392158 5.979319 A
9279 B -8.600143 5.669703 5.491820 B
9280 B -8.748696 4.962334 6.078787 B
9281 B -7.999019 4.351109 6.074635 B
9282 B -7.130218 3.962157 5.978065 B
9283 B -6.456595 3.503657 5.567309 B
9284 B -5.963961 2.627337 5.466320 B
9285 B -5.782213 2.302368 6.356061 B
9286 A -6.001380 2.910528 7.094980 A
9287 A -6.920270 2.633727 6.916656 A
9288 A -6.767456 1.982508 6.189484 A
9289 A -6.534716 1.454959 5.429050 A
9290 A -6.255591 0.588249 5.153449 A
9291 A -5.769650 -0.223648 5.012520 A
9292 A 9.770484 1.661873 11.197770 A
9293 A 9.716449 2.344186 10.523490 A
9294 A 9.661286 3.252660 10.267030 A
9295 A 10.211420 3.959817 10.645940 A
9296 A 10.881930 3.948412 11.323770 A
9297 A 11.256260 3.491334 12.077730 A
9298 B 11.321720 3.047645 12.929930 B
9299 B 10.746690 3.070034 -13.366090 B
9300 B 11.044030 3.978708 13.538680 B
9301 B 10.881440 4.915711 13.358830 B
9302 B 9.997323 5.225526 -13.521740 B
9303 B 9.304768 4.743058 -13.073710 B
9304 B 9.059599 4.364364 -12.234430 B
9305 A 9.534793 3.850588 -11.592410 A
9306 A 10.130010 3.185784 -11.240890 A
9307 A 10.618290 2.416458 -10.920350 A
9308 A 11.102920 1.633738 -10.801040 A
9309 A 11.202760 0.903556 -10.156910 A
9310 A 11.741510 0.893564 -9.345852 A
9311 A 0.717644 5.866137 0.227428 A
9312 A 1.191183 6.260856 0.974881 A
9313 A 0.939678 6.947504 1.562851 A
9314 A 0.435584 7.667818 1.954165 A
9315 A 0.528363 8.102567 2.824695 A
9316 A 0.263047 8.818358 3.419101 A
9317 B -0.285691 8.313786 4.017939 B
9318 B -0.315918 8.329635 5.005030 B
9319 B -0.404399 8.423473 5.965174 B
9320 B -0.791308 7.629662 5.646854 B
9321 B -0.950560 6.986877 4.944002 B
9322 B -0.887944 6.686780 4.026124 B
9323 B -1.218232 6.144250 3.291698 B
9324 A -1.772299 5.601098 2.766943 A
9325 A -2.372147 5.771724 2.061209 A
9326 A -3.091790 6.333408 1.695764 A
9327 A -3.261269 6.946387 1.008366 A
9328 A -3.539757 7.013190 0.068059 A
9329 A -3.865359 7.847381 0.433497 A
9330 A -6.551857 -2.883703 -9.616052 A
9331 A -5.824590 -2.682834 -10.205520 A
9332 A -4.853452 -2.708914 -10.122150 A
9333 A -4.099924 -2.402079 -10.586230 A
9334 A -3.736300 -1.653659 -11.079170 A
9335 A -3.387613 -1.615614 -11.966150 A
9336 B -2.752304 -1.746522 -12.673320 B
9337 B -2.050118 -2.119264 -12.141860 B
9338 B -1.976531 -2.728369 -11.439590 B
9339 B -1.350474 -3.445269 -11.410640 B
9340 B -1.668439 -4.368989 -11.258450 B
9341 B -2.134850 -4.289589 -10.404860 B
9342 B -2.208379 -3.452266 -9.948361 B
9343 A -1.304695 -3.530240 -9.692599 A
9344 A -0.547191 -4.070510 -9.914064 A
9345 A -0.846872 -4.906703 -10.313120 A
9346 A -1.351680 -5.412276 -10.920050 A
9347 A -2.041645 -5.343387 -11.633390 A
9348 A -2.648738 -4.612190 -11.687290 A
9349 A -3.624657 7.558158 7.929090 A
9350 A -3.058408 7.039655 8.488032 A
9351 A -3.480893 7.414744 9.286647 A
9352 A -4.266891 7.601790 9.917544 A
9353 A -4.588333 7.174496 9.124467 A
9354 A -5.189991 7.201731 8.313767 A
9355 B -5.382260 8.027879 8.846771 B
9356 B -5.523324 8.797732 9.374855 B
9357 B -6.322266 8.820076 9.902336 B
9358 B -5.812836 9.560556 9.992450 B
9359 B -4.993115 9.321716 10.435580 B
9360 B -4.689538 8.421441 10.601710 B
9361 B -4.372487 7.765456 11.198770 B
9362 A -3.812817 7.168581 11.596040 A
9363 A -4.650771 7.029011 12.058660 A
9364 A -5.350966 6.472189 11.685240 A
9365 A -5.343470 6.092532 10.841010 A
9366 A -5.492857 5.822119 9.962580 A
9367 A -5.473763 5.958032 8.980844 A
9368 A -10.649590 4.019475 5.525430 A
9369 A -10.120090 4.513136 4.858679 A
9370 A -9.497924 4.546991 4.153583 A
9371 A -9.448134 4.059045 3.296977 A
9372 A -10.379260 3.761661 3.083368 A
9373 A -10.965210 4.431125 3.478431 A
9374 B -11.524640 5.201180 3.620356 B
9375 B -11.078610 5.708455 4.349573 B
9376 B -10.762860 5.539119 5.235123 B
9377 B -10.783260 5.520268 6.205794 B
9378 B -11.533890 4.990437 5.864463 B
9379 B -11.662550 4.181390 5.458041 B
9380 B -11.834970 4.337334 4.546520 B
9381 A -12.444160 4.440705 3.801327 A
9382 A -12.972780 5.136296 3.301215 A
9383 A -12.405530 4.839726 2.603291 A
9384 A -12.002950 3.934583 2.484327 A
9385 A -11.957740 2.959037 2.446534 A
9386 A -12.868390 2.559711 2.567813 A
9387 A 0.356878 -0.252874 -6.635646 A
9388 A 1.259942 0.153227 -6.401227 A
9389 A 1.778772 0.623891 -7.031817 A
9390 A 2.524782 0.732923 -7.522804 A
9391 A 3.073962 0.657855 -8.317823 A
9392 A 4.026925 0.007336 -8.261179 A
9393 B 4.684014 -0.241006 -7.602534 B
9394 B 4.271615 -0.773104 -7.077770 B
9395 B 4.378146 -0.047463 -6.582013 B
9396 B 3.791726 0.235157 -5.811478 B
9397 B 2.872059 0.533440 -5.825526 B
9398 B 1.958886 1.000989 -5.716043 B
9399 B 1.762656 1.861695 -6.008742 B
9400 A 1.516757 2.256586 -5.256001 A
9401 A 0.982285 1.626667 -4.726590 A
9402 A 0.616968 1.995782 -3.862046 A
9403 A 0.082415 1.812454 -3.102168 A
9404 A 0.150942 0.944460 -2.703528 A
9405 A 0.971477 0.399505 -3.091757 A
9406 A 5.053720 9.633954 -1.399800 A
9407 A 5.625034 9.925344 -2.156209 A
9408 A 5.718202 10.248440 -3.059250 A
9409 A 6.037117 10.774980 -3.822826 A
9410 A 5.463698 10.399890 -4.473493 A
9411 A 4.793346 9.997361 -3.948802 A
9412 B 4.351802 9.761218 -3.098348 B
9413 B 3.582373 9.099889 -3.182150 B
9414 B 3.098384 8.305576 -2.905784 B
9415 B 2.164183 8.247191 -2.746460 B
9416 B 1.466738 8.898081 -2.938291 B
9417 B 1.366730 9.859953 -2.961586 B
9418 B 0.675795 10.372050 -3.453758 B
9419 A 0.370391 11.259200 -3.748796 A
9420 A 1.042111 11.463680 -4.374580 A
9421 A 1.892859 11.336460 -3.994551 A
9422 A 2.277691 10.475030 -3.837749 A
9423 A 2.442478 9.642229 -3.446482 A
9424 A 2.713809 9.105010 -4.210682 A
9425 A -9.520868 4.790868 10.043820 A
9426 A -9.401267 5.399817 9.331429 A
9427 A -9.469941 6.013955 8.560952 A
9428 A -9.327659 6.938461 8.376230 A
9429 A -9.442980 7.592622 7.659439 A
9430 A -9.528743 8.263534 6.965879 A
9431 B -8.965278 8.960816 6.522696 B
9432 B -8.593578 9.845542 6.728025 B
9433 B -8.299692 10.755600 6.885279 B
9434 B -7.366915 10.755300 6.815515 B
9435 B -6.582605 10.426770 7.246740 B
9436 B -5.833002 9.869118 7.506449 B
9437 B -5.004076 9.393935 7.544559 B
9438 A -4.287529 8.827170 7.312699 A
9439 A -3.876227 9.581178 6.896791 A
9440 A -4.428379 10.333630 7.066608 A
9441 A -4.887071 11.051000 7.532693 A
9442 A -5.317728 11.829130 7.952419 A
9443 A -6.246850 11.907970 8.181486 A
9444 A -8.430744 -9.053637 -6.311306 A
9445 A -8.683217 -9.973562 -6.592597 A
9446 A -9.101807 -10.793480 -6.733249 A
9447 A -9.021008 -11.662870 -7.136187 A
9448 A -9.647338 -12.207060 -7.636957 A
9449 A -9.714776 -11.299030 -7.836336 A
9450 B -10.006960 -11.457040 -8.735471 B
9451 B -10.744540 -11.644680 -9.290058 B
9452 B -11.664460 -11.639110 -9.143035 B
9453 B -12.379960 -11.541890 -8.486967 B
9454 B -12.443270 -11.757320 -7.503880 B
9455 B -12.326310 -11.262560 -6.714849 B
9456 B -11.526100 -11.702580 -6.505731 B
9457 A -10.670830 -11.967490 -6.153860 A
9458 A -9.747628 -11.993040 -6.433761 A
9459 A -9.089711 -12.220410 -5.733046 A
9460 A -8.545737 -12.886660 -5.323461 A
9461 A -7.809323 -13.224890 -4.787019 A
9462 A -6.933915 -13.110610 -5.029910 A
9463 A -2.910620 -7.189718 1.210783 A
9464 A -3.446187 -6.895379 0.421837 A
9465 A -3.769209 -6.002872 0.054283 A
9466 A -3.352131 -5.319499 -0.420933 A
9467 A -2.644009 -5.386325 -1.029631 A
9468 A -2.191508 -6.218531 -1.388067 A
9469 B -1.673128 -7.013671 -1.398416 B
9470 B -1.625178 -7.975021 -1.411096 B
9471 B -1.057570 -8.515835 -2.050343 B
9472 B -0.204377 -8.395405 -2.438119 B
9473 B 0.045240 -7.416535 -2.362875 B
9474 B -0.551561 -7.512076 -3.109796 B
9475 B -0.914848 -6.871294 -3.729665 B
9476 A -0.746376 -5.933914 -4.026025 A
9477 A 0.123493 -5.597273 -4.115879 A
9478 A 1.055311 -5.571790 -4.309505 A
9479 A 1.760109 -5.330879 -4.909783 A
9480 A 2.337152 -6.102459 -5.135562 A
9481 A 1.473749 -6.200130 -5.561080 A
9482 A -6.313412 -2.344647 7.814245 A
9483 A -5.661369 -2.053312 7.188774 A
9484 A -6.127858 -2.334171 6.359998 A
9485 A -6.553285 -3.116571 6.715626 A
9486 A -6.978836 -3.936534 7.068719 A
9487 A -7.381699 -4.634925 7.572204 A
9488 B -7.810891 -5.374113 7.991663 B
9489 B -8.002151 -6.051074 8.648916 B
9490 B -7.899765 -6.270635 9.594747 B
9491 B -7.792233 -5.862704 10.451000 B
9492 B -7.634006 -4.993265 10.730380 B
9493 B -8.128392 -4.187376 10.579570 B
9494 B -8.668972 -3.690759 9.927363 B
9495 A -8.733449 -3.035280 9.239664 A
9496 A -8.954062 -2.568087 8.445650 A
9497 A -8.007880 -2.644397 8.417023 A
9498 A -7.876042 -3.301444 7.701793 A
9499 A -8.320572 -2.620219 7.228824 A
9500 A -7.971029 -1.726940 7.186337 A
@<TRIPOS>BOND
1 1 2 1
2 2 3 1
3 3 4 1
4 4 5 1
5 5 6 1
6 6 7 1
7 7 8 1
8 8 9 1
9 9 10 1
10 10 11 1
11 11 12 1
12 12 13 1
13 13 14 1
14 14 15 1
15 15 16 1
16 16 17 1
17 17 18 1
18 18 19 1
19 20 21 1
20 21 22 1
21 22 23 1
22 23 24 1
23 24 25 1
24 25 26 1
25 26 27 1
26 27 28 1
27 28 29 1
28 29 30 1
29 30 31 1
30 31 32 1
31 32 33 1
32 33 34 1
33 34 35 1
34 35 36 1
35 36 37 1
36 37 38 1
37 39 40 1
38 40 41 1
39 41 42 1
40 42 43 1
41 43 44 1
42 44 45 1
43 45 46 1
44 46 47 1
45 47 48 1
46 48 49 1
47 49 50 1
48 50 51 1
49 51 52 1
50 52 53 1
51 53 54 1
52 54 55 1
53 55 56 1
54 56 57 1
55 58 59 1
56 59 60 1
57 60 61 1
58 61 62 1
59 62 63 1
60 63 64 1
61 64 65 1
62 65 66 1
63 66 67 1
64 67 68 1
65 68 69 1
66 69 70 1
67 70 71 1
68 71 72 1
69 72 73 1
70 73 74 1
71 74 75 1
72 75 76 1
73 77 78 1
74 78 79 1
75 79 80 1
76 80 81 1
77 81 82 1
78 82 83 1
79 83 84 1
80 84 85 1
81 85 86 1
82 86 87 1
83 87 88 1
84 88 89 1
85 89 90 1
86 90 91 1
87 91 92 1
88 92 93 1
89 93 94 1
90 94 95 1
91 96 97 1
92 97 98 1
93 98 99 1
94 99 100 1
95 100 101 1
96 101 102 1
97 102 103 1
98 103 104 1
99 104 105 1
100 105 106 1
101 106 107 1
102 107 108 1
103 108 109 1
104 109 110 1
105 110 111 1
106 111 112 1
107 112 113 1
108 113 114 1
109 115 116 1
110 116 117 1
111 117 118 1
112 118 119 1
113 119 120 1
114 120 121 1
115 121 122 1
116 122 123 1
117 123 124 1
118 124 125 1
119 125 126 1
120 126 127 1
121 127 128 1
122 128 129 1
123 129 130 1
124 130 131 1
125 131 132 1
126 132 133 1
127 134 135 1
128 135 136 1
129 136 137 1
130 137 138 1
131 138 139 1
132 139 140 1
133 140 141 1
134 141 142 1
135 142 143 1
136 143 144 1
137 144 145 1
138 145 146 1
139 146 147 1
140 147 148 1
141 148 149 1
142 149 150 1
143 150 151 1
144 151 152 1
145 153 154 1
146 154 155 1
147 155 156 1
148 156 157 1
149 157 158 1
150 158 159 1
151 159 160 1
152 160 161 1
153 161 162 1
154 162 163 1
155 163 164 1
156 164 165 1
157 165 166 1
158 166 167 1
159 167 168 1
160 168 169 1
161 169 170 1
162 170 171 1
163 172 173 1
164 173 174 1
165 174 175 1
166 175 176 1
167 176 177 1
168 177 178 1
169 178 179 1
170 179 180 1
171 180 181 1
172 181 182 1
173 182 183 1
174 183 184 1
175 184 185 1
176 185 186 1
177 186 187 1
178 187 188 1
179 188 189 1
180 189 190 1
181 191 192 1
182 192 193 1
183 193 194 1
184 194 195 1
185 195 196 1
186 196 197 1
187 197 198 1
188 198 199 1
189 199 200 1
190 200 201 1
191 201 202 1
192 202 203 1
193 203 204 1
194 204 205 1
195 205 206 1
196 206 207 1
197 207 208 1
198 208 209 1
199 210 211 1
200 211 212 1
201 212 213 1
202 213 214 1
203 214 215 1
204 215 216 1
205 216 217 1
206 217 218 1
207 218 219 1
208 219 220 1
209 220 221 1
210 221 222 1
211 222 223 1
212 223 224 1
213 224 225 1
214 225 226 1
215 226 227 1
216 227 228 1
217 229 230 1
218 230 231 1
219 231 232 1
220 232 233 1
221 233 234 1
222 234 235 1
223 235 236 1
224 236 237 1
225 237 238 1
226 238 239 1
227 239 240 1
228 240 241 1
229 241 242 1
230 242 243 1
231 243 244 1
232 244 245 1
233 245 246 1
234 246 247 1
235 248 249 1
236 249 250 1
237 250 251 1
238 251 252 1
239 252 253 1
240 253 254 1
241 254 255 1
242 255 256 1
243 256 257 1
244 257 258 1
245 258 259 1
246 259 260 1
247 260 261 1
248 261 262 1
249 262 263 1
250 263 264 1
251 264 265 1
252 265 266 1
253 267 268 1
254 268 269 1
255 269 270 1
256 270 271 1
257 271 272 1
258 272 273 1
259 273 274 1
260 274 275 1
261 275 276 1
262 276 277 1
263 277 278 1
264 278 279 1
265 279 280 1
266 280 281 1
267 281 282 1
268 282 283 1
269 283 284 1
270 284 285 1
271 286 287 1
272 287 288 1
273 288 289 1
274 289 290 1
275 290 291 1
276 291 292 1
277 292 293 1
278 293 294 1
279 294 295 1
280 295 296 1
281 296 297 1
282 297 298 1
283 298 299 1
284 299 300 1
285 300 301 1
286 301 302 1
287 302 303 1
288 303 304 1
289 305 306 1
290 306 307 1
291 307 308 1
292 308 309 1
293 309 310 1
294 310 311 1
295 311 312 1
296 312 313 1
297 313 314 1
298 314 315 1
299 315 316 1
300 316 317 1
301 317 318 1
302 318 319 1
303 319 320 1
304 320 321 1
305 321 322 1
306 322 323 1
307 324 325 1
308 325 326 1
309 326 327 1
310 327 328 1
311 328 329 1
312 329 330 1
313 330 331 1
314 331 332 1
315 332 333 1
316 333 334 1
317 334 335 1
318 335 336 1
319 336 337 1
320 337 338 1
321 338 339 1
322 339 340 1
323 340 341 1
324 341 342 1
325 343 344 1
326 344 345 1
327 345 346 1
328 346 347 1
329 347 348 1
330 348 349 1
331 349 350 1
332 350 351 1
333 351 352 1
334 352 353 1
335 353 354 1
336 354 355 1
337 355 356 1
338 356 357 1
339 357 358 1
340 358 359 1
341 359 360 1
342 360 361 1
343 362 363 1
344 363 364 1
345 364 365 1
346 365 366 1
347 366 367 1
348 367 368 1
349 368 369 1
350 369 370 1
351 370 371 1
352 371 372 1
353 372 373 1
354 373 374 1
355 374 375 1
356 375 376 1
357 376 377 1
358 377 378 1
359 378 379 1
360 379 380 1
361 381 382 1
362 382 383 1
363 383 384 1
364 384 385 1
365 385 386 1
366 386 387 1
367 387 388 1
368 388 389 1
369 389 390 1
370 390 391 1
371 391 392 1
372 392 393 1
373 393 394 1
374 394 395 1
375 395 396 1
376 396 397 1
377 397 398 1
378 398 399 1
379 400 401 1
380 401 402 1
381 402 403 1
382 403 404 1
383 404 405 1
384 405 406 1
385 406 407 1
386 407 408 1
387 408 409 1
388 409 410 1
389 410 411 1
390 411 412 1
391 412 413 1
392 413 414 1
393 414 415 1
394 415 416 1
395 416 417 1
396 417 418 1
397 419 420 1
398 420 421 1
399 421 422 1
400 422 423 1
401 423 424 1
402 424 425 1
403 425 426 1
404 426 427 1
405 427 428 1
406 428 429 1
407 429 430 1
408 430 431 1
409 431 432 1
410 432 433 1
411 433 434 1
412 434 435 1
413 435 436 1
414 436 437 1
415 438 439 1
416 439 440 1
417 440 441 1
418 441 442 1
419 442 443 1
420 443 444 1
421 444 445 1
422 445 446 1
423 446 447 1
424 447 448 1
425 448 449 1
426 449 450 1
427 450 451 1
428 451 452 1
429 452 453 1
430 453 454 1
431 454 455 1
432 455 456 1
433 457 458 1
434 458 459 1
435 459 460 1
436 460 461 1
437 461 462 1
438 462 463 1
439 463 464 1
440 464 465 1
441 465 466 1
442 466 467 1
443 467 468 1
444 468 469 1
445 469 470 1
446 470 471 1
447 471 472 1
448 472 473 1
449 473 474 1
450 474 475 1
451 476 477 1
452 477 478 1
453 478 479 1
454 479 480 1
455 480 481 1
456 481 482 1
457 482 483 1
458 483 484 1
459 484 485 1
460 485 486 1
461 486 487 1
462 487 488 1
463 488 489 1
464 489 490 1
465 490 491 1
466 491 492 1
467 492 493 1
468 493 494 1
469 495 496 1
470 496 497 1
471 497 498 1
472 498 499 1
473 499 500 1
474 500 501 1
475 501 502 1
476 502 503 1
477 503 504 1
478 504 505 1
479 505 506 1
480 506 507 1
481 507 508 1
482 508 509 1
483 509 510 1
484 510 511 1
485 511 512 1
486 512 513 1
487 514 515 1
488 515 516 1
489 516 517 1
490 517 518 1
491 518 519 1
492 519 520 1
493 520 521 1
494 521 522 1
495 522 523 1
496 523 524 1
497 524 525 1
498 525 526 1
499 526 527 1
500 527 528 1
501 528 529 1
502 529 530 1
503 530 531 1
504 531 532 1
505 533 534 1
506 534 535 1
507 535 536 1
508 536 537 1
509 537 538 1
510 538 539 1
511 539 540 1
512 540 541 1
513 541 542 1
514 542 543 1
515 543 544 1
516 544 545 1
517 545 546 1
518 546 547 1
519 547 548 1
520 548 549 1
521 549 550 1
522 550 551 1
523 552 553 1
524 553 554 1
525 554 555 1
526 555 556 1
527 556 557 1
528 557 558 1
529 558 559 1
530 559 560 1
531 560 561 1
532 561 562 1
533 562 563 1
534 563 564 1
535 564 565 1
536 565 566 1
537 566 567 1
538 567 568 1
539 568 569 1
540 569 570 1
541 571 572 1
542 572 573 1
543 573 574 1
544 574 575 1
545 575 576 1
546 576 577 1
547 577 578 1
548 578 579 1
549 579 580 1
550 580 581 1
551 581 582 1
552 582 583 1
553 583 584 1
554 584 585 1
555 585 586 1
556 586 587 1
557 587 588 1
558 588 589 1
559 590 591 1
560 591 592 1
561 592 593 1
562 593 594 1
563 594 595 1
564 595 596 1
565 596 597 1
566 597 598 1
567 598 599 1
568 599 600 1
569 600 601 1
570 601 602 1
571 602 603 1
572 603 604 1
573 604 605 1
574 605 606 1
575 606 607 1
576 607 608 1
577 609 610 1
578 610 611 1
579 611 612 1
580 612 613 1
581 613 614 1
582 614 615 1
583 615 616 1
584 616 617 1
585 617 618 1
586 618 619 1
587 619 620 1
588 620 621 1
589 621 622 1
590 622 623 1
591 623 624 1
592 624 625 1
593 625 626 1
594 626 627 1
595 628 629 1
596 629 630 1
597 630 631 1
598 631 632 1
599 632 633 1
600 633 634 1
601 634 635 1
602 635 636 1
603 636 637 1
604 637 638 1
605 638 639 1
606 639 640 1
607 640 641 1
608 641 642 1
609 642 643 1
610 643 644 1
611 644 645 1
612 645 646 1
613 647 648 1
614 648 649 1
615 649 650 1
616 650 651 1
617 651 652 1
618 652 653 1
619 653 654 1
620 654 655 1
621 655 656 1
622 656 657 1
623 657 658 1
624 658 659 1
625 659 660 1
626 660 661 1
627 661 662 1
628 662 663 1
629 663 664 1
630 664 665 1
631 666 667 1
632 667 668 1
633 668 669 1
634 669 670 1
635 670 671 1
636 671 672 1
637 672 673 1
638 673 674 1
639 674 675 1
640 675 676 1
641 676 677 1
642 677 678 1
643 678 679 1
644 679 680 1
645 680 681 1
646 681 682 1
647 682 683 1
648 683 684 1
649 685 686 1
650 686 687 1
651 687 688 1
652 688 689 1
653 689 690 1
654 690 691 1
655 691 692 1
656 692 693 1
657 693 694 1
658 694 695 1
659 695 696 1
660 696 697 1
661 697 698 1
662 698 699 1
663 699 700 1
664 700 701 1
665 701 702 1
666 702 703 1
667 704 705 1
668 705 706 1
669 706 707 1
670 707 708 1
671 708 709 1
672 709 710 1
673 710 711 1
674 711 712 1
675 712 713 1
676 713 714 1
677 714 715 1
678 715 716 1
679 716 717 1
680 717 718 1
681 718 719 1
682 719 720 1
683 720 721 1
684 721 722 1
685 723 724 1
686 724 725 1
687 725 726 1
688 726 727 1
689 727 728 1
690 728 729 1
691 729 730 1
692 730 731 1
693 731 732 1
694 732 733 1
695 733 734 1
696 734 735 1
697 735 736 1
698 736 737 1
699 737 738 1
700 738 739 1
701 739 740 1
702 740 741 1
703 742 743 1
704 743 744 1
705 744 745 1
706 745 746 1
707 746 747 1
708 747 748 1
709 748 749 1
710 749 750 1
711 750 751 1
712 751 752 1
713 752 753 1
714 753 754 1
715 754 755 1
716 755 756 1
717 756 757 1
718 757 758 1
719 758 759 1
720 759 760 1
721 761 762 1
722 762 763 1
723 763 764 1
724 764 765 1
725 765 766 1
726 766 767 1
727 767 768 1
728 768 769 1
729 769 770 1
730 770 771 1
731 771 772 1
732 772 773 1
733 773 774 1
734 774 775 1
735 775 776 1
736 776 777 1
737 777 778 1
738 778 779 1
739 780 781 1
740 781 782 1
741 782 783 1
742 783 784 1
743 784 785 1
744 785 786 1
745 786 787 1
746 787 788 1
747 788 789 1
748 789 790 1
749 790 791 1
750 791 792 1
751 792 793 1
752 793 794 1
753 794 795 1
754 795 796 1
755 796 797 1
756 797 798 1
757 799 800 1
758 800 801 1
759 801 802 1
760 802 803 1
761 803 804 1
762 804 805 1
763 805 806 1
764 806 807 1
765 807 808 1
766 808 809 1
767 809 810 1
768 810 811 1
769 811 812 1
770 812 813 1
771 813 814 1
772 814 815 1
773 815 816 1
774 816 817 1
775 818 819 1
776 819 820 1
777 820 821 1
778 821 822 1
779 822 823 1
780 823 824 1
781 824 825 1
782 825 826 1
783 826 827 1
784 827 828 1
785 828 829 1
786 829 830 1
787 830 831 1
788 831 832 1
789 832 833 1
790 833 834 1
791 834 835 1
792 835 836 1
793 837 838 1
794 838 839 1
795 839 840 1
796 840 841 1
797 841 842 1
798 842 843 1
799 843 844 1
800 844 845 1
801 845 846 1
802 846 847 1
803 847 848 1
804 848 849 1
805 849 850 1
806 850 851 1
807 851 852 1
808 852 853 1
809 853 854 1
810 854 855 1
811 856 857 1
812 857 858 1
813 858 859 1
814 859 860 1
815 860 861 1
816 861 862 1
817 862 863 1
818 863 864 1
819 864 865 1
820 865 866 1
821 866 867 1
822 867 868 1
823 868 869 1
824 869 870 1
825 870 871 1
826 871 872 1
827 872 873 1
828 873 874 1
829 875 876 1
830 876 877 1
831 877 878 1
832 878 879 1
833 879 880 1
834 880 881 1
835 881 882 1
836 882 883 1
837 883 884 1
838 884 885 1
839 885 886 1
840 886 887 1
841 887 888 1
842 888 889 1
843 889 890 1
844 890 891 1
845 891 892 1
846 892 893 1
847 894 895 1
848 895 896 1
849 896 897 1
850 897 898 1
851 898 899 1
852 899 900 1
853 900 901 1
854 901 902 1
855 902 903 1
856 903 904 1
857 904 905 1
858 905 906 1
859 906 907 1
860 907 908 1
861 908 909 1
862 909 910 1
863 910 911 1
864 911 912 1
865 913 914 1
866 914 915 1
867 915 916 1
868 916 917 1
869 917 918 1
870 918 919 1
871 919 920 1
872 920 921 1
873 921 922 1
874 922 923 1
875 923 924 1
876 924 925 1
877 925 926 1
878 926 927 1
879 927 928 1
880 928 929 1
881 929 930 1
882 930 931 1
883 932 933 1
884 933 934 1
885 934 935 1
886 935 936 1
887 936 937 1
888 937 938 1
889 938 939 1
890 939 940 1
891 940 941 1
892 941 942 1
893 942 943 1
894 943 944 1
895 944 945 1
896 945 946 1
897 946 947 1
898 947 948 1
899 948 949 1
900 949 950 1
901 951 952 1
902 952 953 1
903 953 954 1
904 954 955 1
905 955 956 1
906 956 957 1
907 957 958 1
908 958 959 1
909 959 960 1
910 960 961 1
911 961 962 1
912 962 963 1
913 963 964 1
914 964 965 1
915 965 966 1
916 966 967 1
917 967 968 1
918 968 969 1
919 970 971 1
920 971 972 1
921 972 973 1
922 973 974 1
923 974 975 1
924 975 976 1
925 976 977 1
926 977 978 1
927 978 979 1
928 979 980 1
929 980 981 1
930 981 982 1
931 982 983 1
932 983 984 1
933 984 985 1
934 985 986 1
935 986 987 1
936 987 988 1
937 989 990 1
938 990 991 1
939 991 992 1
940 992 993 1
941 993 994 1
942 994 995 1
943 995 996 1
944 996 997 1
945 997 998 1
946 998 999 1
947 999 1000 1
948 1000 1001 1
949 1001 1002 1
950 1002 1003 1
951 1003 1004 1
952 1004 1005 1
953 1005 1006 1
954 1006 1007 1
955 1008 1009 1
956 1009 1010 1
957 1010 1011 1
958 1011 1012 1
959 1012 1013 1
960 1013 1014 1
961 1014 1015 1
962 1015 1016 1
963 1016 1017 1
964 1017 1018 1
965 1018 1019 1
966 1019 1020 1
967 1020 1021 1
968 1021 1022 1
969 1022 1023 1
970 1023 1024 1
971 1024 1025 1
972 1025 1026 1
973 1027 1028 1
974 1028 1029 1
975 1029 1030 1
976 1030 1031 1
977 1031 1032 1
978 1032 1033 1
979 1033 1034 1
980 1034 1035 1
981 1035 1036 1
982 1036 1037 1
983 1037 1038 1
984 1038 1039 1
985 1039 1040 1
986 1040 1041 1
987 1041 1042 1
988 1042 1043 1
989 1043 1044 1
990 1044 1045 1
991 1046 1047 1
992 1047 1048 1
993 1048 1049 1
994 1049 1050 1
995 1050 1051 1
996 1051 1052 1
997 1052 1053 1
998 1053 1054 1
999 1054 1055 1
1000 1055 1056 1
1001 1056 1057 1
1002 1057 1058 1
1003 1058 1059 1
1004 1059 1060 1
1005 1060 1061 1
1006 1061 1062 1
1007 1062 1063 1
1008 1063 1064 1
1009 1065 1066 1
1010 1066 1067 1
1011 1067 1068 1
1012 1068 1069 1
1013 1069 1070 1
1014 1070 1071 1
1015 1071 1072 1
1016 1072 1073 1
1017 1073 1074 1
1018 1074 1075 1
1019 1075 1076 1
1020 1076 1077 1
1021 1077 1078 1
1022 1078 1079 1
1023 1079 1080 1
1024 1080 1081 1
1025 1081 1082 1
1026 1082 1083 1
1027 1084 1085 1
1028 1085 1086 1
1029 1086 1087 1
1030 1087 1088 1
1031 1088 1089 1
1032 1089 1090 1
1033 1090 1091 1
1034 1091 1092 1
1035 1092 1093 1
1036 1093 1094 1
1037 1094 1095 1
1038 1095 1096 1
1039 1096 1097 1
1040 1097 1098 1
1041 1098 1099 1
1042 1099 1100 1
1043 1100 1101 1
1044 1101 1102 1
1045 1103 1104 1
1046 1104 1105 1
1047 1105 1106 1
1048 1106 1107 1
1049 1107 1108 1
1050 1108 1109 1
1051 1109 1110 1
1052 1110 1111 1
1053 1111 1112 1
1054 1112 1113 1
1055 1113 1114 1
1056 1114 1115 1
1057 1115 1116 1
1058 1116 1117 1
1059 1117 1118 1
1060 1118 1119 1
1061 1119 1120 1
1062 1120 1121 1
1063 1122 1123 1
1064 1123 1124 1
1065 1124 1125 1
1066 1125 1126 1
1067 1126 1127 1
1068 1127 1128 1
1069 1128 1129 1
1070 1129 1130 1
1071 1130 1131 1
1072 1131 1132 1
1073 1132 1133 1
1074 1133 1134 1
1075 1134 1135 1
1076 1135 1136 1
1077 1136 1137 1
1078 1137 1138 1
1079 1138 1139 1
1080 1139 1140 1
1081 1141 1142 1
1082 1142 1143 1
1083 1143 1144 1
1084 1144 1145 1
1085 1145 1146 1
1086 1146 1147 1
1087 1147 1148 1
1088 1148 1149 1
1089 1149 1150 1
1090 1150 1151 1
1091 1151 1152 1
1092 1152 1153 1
1093 1153 1154 1
1094 1154 1155 1
1095 1155 1156 1
1096 1156 1157 1
1097 1157 1158 1
1098 1158 1159 1
1099 1160 1161 1
1100 1161 1162 1
1101 1162 1163 1
1102 1163 1164 1
1103 1164 1165 1
1104 1165 1166 1
1105 1166 1167 1
1106 1167 1168 1
1107 1168 1169 1
1108 1169 1170 1
1109 1170 1171 1
1110 1171 1172 1
1111 1172 1173 1
1112 1173 1174 1
1113 1174 1175 1
1114 1175 1176 1
1115 1176 1177 1
1116 1177 1178 1
1117 1179 1180 1
1118 1180 1181 1
1119 1181 1182 1
1120 1182 1183 1
1121 1183 1184 1
1122 1184 1185 1
1123 1185 1186 1
1124 1186 1187 1
1125 1187 1188 1
1126 1188 1189 1
1127 1189 1190 1
1128 1190 1191 1
1129 1191 1192 1
1130 1192 1193 1
1131 1193 1194 1
1132 1194 1195 1
1133 1195 1196 1
1134 1196 1197 1
1135 1198 1199 1
1136 1199 1200 1
1137 1200 1201 1
1138 1201 1202 1
1139 1202 1203 1
1140 1203 1204 1
1141 1204 1205 1
1142 1205 1206 1
1143 1206 1207 1
1144 1207 1208 1
1145 1208 1209 1
1146 1209 1210 1
1147 1210 1211 1
1148 1211 1212 1
1149 1212 1213 1
1150 1213 1214 1
1151 1214 1215 1
1152 1215 1216 1
1153 1217 1218 1
1154 1218 1219 1
1155 1219 1220 1
1156 1220 1221 1
1157 1221 1222 1
1158 1222 1223 1
1159 1223 1224 1
1160 1224 1225 1
1161 1225 1226 1
1162 1226 1227 1
1163 1227 1228 1
1164 1228 1229 1
1165 1229 1230 1
1166 1230 1231 1
1167 1231 1232 1
1168 1232 1233 1
1169 1233 1234 1
1170 1234 1235 1
1171 1236 1237 1
1172 1237 1238 1
1173 1238 1239 1
1174 1239 1240 1
1175 1240 1241 1
1176 1241 1242 1
1177 1242 1243 1
1178 1243 1244 1
1179 1244 1245 1
1180 1245 1246 1
1181 1246 1247 1
1182 1247 1248 1
1183 1248 1249 1
1184 1249 1250 1
1185 1250 1251 1
1186 1251 1252 1
1187 1252 1253 1
1188 1253 1254 1
1189 1255 1256 1
1190 1256 1257 1
1191 1257 1258 1
1192 1258 1259 1
1193 1259 1260 1
1194 1260 1261 1
1195 1261 1262 1
1196 1262 1263 1
1197 1263 1264 1
1198 1264 1265 1
1199 1265 1266 1
1200 1266 1267 1
1201 1267 1268 1
1202 1268 1269 1
1203 1269 1270 1
1204 1270 1271 1
1205 1271 1272 1
1206 1272 1273 1
1207 1274 1275 1
1208 1275 1276 1
1209 1276 1277 1
1210 1277 1278 1
1211 1278 1279 1
1212 1279 1280 1
1213 1280 1281 1
1214 1281 1282 1
1215 1282 1283 1
1216 1283 1284 1
1217 1284 1285 1
1218 1285 1286 1
1219 1286 1287 1
1220 1287 1288 1
1221 1288 1289 1
1222 1289 1290 1
1223 1290 1291 1
1224 1291 1292 1
1225 1293 1294 1
1226 1294 1295 1
1227 1295 1296 1
1228 1296 1297 1
1229 1297 1298 1
1230 1298 1299 1
1231 1299 1300 1
1232 1300 1301 1
1233 1301 1302 1
1234 1302 1303 1
1235 1303 1304 1
1236 1304 1305 1
1237 1305 1306 1
1238 1306 1307 1
1239 1307 1308 1
1240 1308 1309 1
1241 1309 1310 1
1242 1310 1311 1
1243 1312 1313 1
1244 1313 1314 1
1245 1314 1315 1
1246 1315 1316 1
1247 1316 1317 1
1248 1317 1318 1
1249 1318 1319 1
1250 1319 1320 1
1251 1320 1321 1
1252 1321 1322 1
1253 1322 1323 1
1254 1323 1324 1
1255 1324 1325 1
1256 1325 1326 1
1257 1326 1327 1
1258 1327 1328 1
1259 1328 1329 1
1260 1329 1330 1
1261 1331 1332 1
1262 1332 1333 1
1263 1333 1334 1
1264 1334 1335 1
1265 1335 1336 1
1266 1336 1337 1
1267 1337 1338 1
1268 1338 1339 1
1269 1339 1340 1
1270 1340 1341 1
1271 1341 1342 1
1272 1342 1343 1
1273 1343 1344 1
1274 1344 1345 1
1275 1345 1346 1
1276 1346 1347 1
1277 1347 1348 1
1278 1348 1349 1
1279 1350 1351 1
1280 1351 1352 1
1281 1352 1353 1
1282 1353 1354 1
1283 1354 1355 1
1284 1355 1356 1
1285 1356 1357 1
1286 1357 1358 1
1287 1358 1359 1
1288 1359 1360 1
1289 1360 1361 1
1290 1361 1362 1
1291 1362 1363 1
1292 1363 1364 1
1293 1364 1365 1
1294 1365 1366 1
1295 1366 1367 1
1296 1367 1368 1
1297 1369 1370 1
1298 1370 1371 1
1299 1371 1372 1
1300 1372 1373 1
1301 1373 1374 1
1302 1374 1375 1
1303 1375 1376 1
1304 1376 1377 1
1305 1377 1378 1
1306 1378 1379 1
1307 1379 1380 1
1308 1380 1381 1
1309 1381 1382 1
1310 1382 1383 1
1311 1383 1384 1
1312 1384 1385 1
1313 1385 1386 1
1314 1386 1387 1
1315 1388 1389 1
1316 1389 1390 1
1317 1390 1391 1
1318 1391 1392 1
1319 1392 1393 1
1320 1393 1394 1
1321 1394 1395 1
1322 1395 1396 1
1323 1396 1397 1
1324 1397 1398 1
1325 1398 1399 1
1326 1399 1400 1
1327 1400 1401 1
1328 1401 1402 1
1329 1402 1403 1
1330 1403 1404 1
1331 1404 1405 1
1332 1405 1406 1
1333 1407 1408 1
1334 1408 1409 1
1335 1409 1410 1
1336 1410 1411 1
1337 1411 1412 1
1338 1412 1413 1
1339 1413 1414 1
1340 1414 1415 1
1341 1415 1416 1
1342 1416 1417 1
1343 1417 1418 1
1344 1418 1419 1
1345 1419 1420 1
1346 1420 1421 1
1347 1421 1422 1
1348 1422 1423 1
1349 1423 1424 1
1350 1424 1425 1
1351 1426 1427 1
1352 1427 1428 1
1353 1428 1429 1
1354 1429 1430 1
1355 1430 1431 1
1356 1431 1432 1
1357 1432 1433 1
1358 1433 1434 1
1359 1434 1435 1
1360 1435 1436 1
1361 1436 1437 1
1362 1437 1438 1
1363 1438 1439 1
1364 1439 1440 1
1365 1440 1441 1
1366 1441 1442 1
1367 1442 1443 1
1368 1443 1444 1
1369 1445 1446 1
1370 1446 1447 1
1371 1447 1448 1
1372 1448 1449 1
1373 1449 1450 1
1374 1450 1451 1
1375 1451 1452 1
1376 1452 1453 1
1377 1453 1454 1
1378 1454 1455 1
1379 1455 1456 1
1380 1456 1457 1
1381 1457 1458 1
1382 1458 1459 1
1383 1459 1460 1
1384 1460 1461 1
1385 1461 1462 1
1386 1462 1463 1
1387 1464 1465 1
1388 1465 1466 1
1389 1466 1467 1
1390 1467 1468 1
1391 1468 1469 1
1392 1469 1470 1
1393 1470 1471 1
1394 1471 1472 1
1395 1472 1473 1
1396 1473 1474 1
1397 1474 1475 1
1398 1475 1476 1
1399 1476 1477 1
1400 1477 1478 1
1401 1478 1479 1
1402 1479 1480 1
1403 1480 1481 1
1404 1481 1482 1
1405 1483 1484 1
1406 1484 1485 1
1407 1485 1486 1
1408 1486 1487 1
1409 1487 1488 1
1410 1488 1489 1
1411 1489 1490 1
1412 1490 1491 1
1413 1491 1492 1
1414 1492 1493 1
1415 1493 1494 1
1416 1494 1495 1
1417 1495 1496 1
1418 1496 1497 1
1419 1497 1498 1
1420 1498 1499 1
1421 1499 1500 1
1422 1500 1501 1
1423 1502 1503 1
1424 1503 1504 1
1425 1504 1505 1
1426 1505 1506 1
1427 1506 1507 1
1428 1507 1508 1
1429 1508 1509 1
1430 1509 1510 1
1431 1510 1511 1
1432 1511 1512 1
1433 1512 1513 1
1434 1513 1514 1
1435 1514 1515 1
1436 1515 1516 1
1437 1516 1517 1
1438 1517 1518 1
1439 1518 1519 1
1440 1519 1520 1
1441 1521 1522 1
1442 1522 1523 1
1443 1523 1524 1
1444 1524 1525 1
1445 1525 1526 1
1446 1526 1527 1
1447 1527 1528 1
1448 1528 1529 1
1449 1529 1530 1
1450 1530 1531 1
1451 1531 1532 1
1452 1532 1533 1
1453 1533 1534 1
1454 1534 1535 1
1455 1535 1536 1
1456 1536 1537 1
1457 1537 1538 1
1458 1538 1539 1
1459 1540 1541 1
1460 1541 1542 1
1461 1542 1543 1
1462 1543 1544 1
1463 1544 1545 1
1464 1545 1546 1
1465 1546 1547 1
1466 1547 1548 1
1467 1548 1549 1
1468 1549 1550 1
1469 1550 1551 1
1470 1551 1552 1
1471 1552 1553 1
1472 1553 1554 1
1473 1554 1555 1
1474 1555 1556 1
1475 1556 1557 1
1476 1557 1558 1
1477 1559 1560 1
1478 1560 1561 1
1479 1561 1562 1
1480 1562 1563 1
1481 1563 1564 1
1482 1564 1565 1
1483 1565 1566 1
1484 1566 1567 1
1485 1567 1568 1
1486 1568 1569 1
1487 1569 1570 1
1488 1570 1571 1
1489 1571 1572 1
1490 1572 1573 1
1491 1573 1574 1
1492 1574 1575 1
1493 1575 1576 1
1494 1576 1577 1
1495 1578 1579 1
1496 1579 1580 1
1497 1580 1581 1
1498 1581 1582 1
1499 1582 1583 1
1500 1583 1584 1
1501 1584 1585 1
1502 1585 1586 1
1503 1586 1587 1
1504 1587 1588 1
1505 1588 1589 1
1506 1589 1590 1
1507 1590 1591 1
1508 1591 1592 1
1509 1592 1593 1
1510 1593 1594 1
1511 1594 1595 1
1512 1595 1596 1
1513 1597 1598 1
1514 1598 1599 1
1515 1599 1600 1
1516 1600 1601 1
1517 1601 1602 1
1518 1602 1603 1
1519 1603 1604 1
1520 1604 1605 1
1521 1605 1606 1
1522 1606 1607 1
1523 1607 1608 1
1524 1608 1609 1
1525 1609 1610 1
1526 1610 1611 1
1527 1611 1612 1
1528 1612 1613 1
1529 1613 1614 1
1530 1614 1615 1
1531 1616 1617 1
1532 1617 1618 1
1533 1618 1619 1
1534 1619 1620 1
1535 1620 1621 1
1536 1621 1622 1
1537 1622 1623 1
1538 1623 1624 1
1539 1624 1625 1
1540 1625 1626 1
1541 1626 1627 1
1542 1627 1628 1
1543 1628 1629 1
1544 1629 1630 1
1545 1630 1631 1
1546 1631 1632 1
1547 1632 1633 1
1548 1633 1634 1
1549 1635 1636 1
1550 1636 1637 1
1551 1637 1638 1
1552 1638 1639 1
1553 1639 1640 1
1554 1640 1641 1
1555 1641 1642 1
1556 1642 1643 1
1557 1643 1644 1
1558 1644 1645 1
1559 1645 1646 1
1560 1646 1647 1
1561 1647 1648 1
1562 1648 1649 1
1563 1649 1650 1
1564 1650 1651 1
1565 1651 1652 1
1566 1652 1653 1
1567 1654 1655 1
1568 1655 1656 1
1569 1656 1657 1
1570 1657 1658 1
1571 1658 1659 1
1572 1659 1660 1
1573 1660 1661 1
1574 1661 1662 1
1575 1662 1663 1
1576 1663 1664 1
1577 1664 1665 1
1578 1665 1666 1
1579 1666 1667 1
1580 1667 1668 1
1581 1668 1669 1
1582 1669 1670 1
1583 1670 1671 1
1584 1671 1672 1
1585 1673 1674 1
1586 1674 1675 1
1587 1675 1676 1
1588 1676 1677 1
1589 1677 1678 1
1590 1678 1679 1
1591 1679 1680 1
1592 1680 1681 1
1593 1681 1682 1
1594 1682 1683 1
1595 1683 1684 1
1596 1684 1685 1
1597 1685 1686 1
1598 1686 1687 1
1599 1687 1688 1
1600 1688 1689 1
1601 1689 1690 1
1602 1690 1691 1
1603 1692 1693 1
1604 1693 1694 1
1605 1694 1695 1
1606 1695 1696 1
1607 1696 1697 1
1608 1697 1698 1
1609 1698 1699 1
1610 1699 1700 1
1611 1700 1701 1
1612 1701 1702 1
1613 1702 1703 1
1614 1703 1704 1
1615 1704 1705 1
1616 1705 1706 1
1617 1706 1707 1
1618 1707 1708 1
1619 1708 1709 1
1620 1709 1710 1
1621 1711 1712 1
1622 1712 1713 1
1623 1713 1714 1
1624 1714 1715 1
1625 1715 1716 1
1626 1716 1717 1
1627 1717 1718 1
1628 1718 1719 1
1629 1719 1720 1
1630 1720 1721 1
1631 1721 1722 1
1632 1722 1723 1
1633 1723 1724 1
1634 1724 1725 1
1635 1725 1726 1
1636 1726 1727 1
1637 1727 1728 1
1638 1728 1729 1
1639 1730 1731 1
1640 1731 1732 1
1641 1732 1733 1
1642 1733 1734 1
1643 1734 1735 1
1644 1735 1736 1
1645 1736 1737 1
1646 1737 1738 1
1647 1738 1739 1
1648 1739 1740 1
1649 1740 1741 1
1650 1741 1742 1
1651 1742 1743 1
1652 1743 1744 1
1653 1744 1745 1
1654 1745 1746 1
1655 1746 1747 1
1656 1747 1748 1
1657 1749 1750 1
1658 1750 1751 1
1659 1751 1752 1
1660 1752 1753 1
1661 1753 1754 1
1662 1754 1755 1
1663 1755 1756 1
1664 1756 1757 1
1665 1757 1758 1
1666 1758 1759 1
1667 1759 1760 1
1668 1760 1761 1
1669 1761 1762 1
1670 1762 1763 1
1671 1763 1764 1
1672 1764 1765 1
1673 1765 1766 1
1674 1766 1767 1
1675 1768 1769 1
1676 1769 1770 1
1677 1770 1771 1
1678 1771 1772 1
1679 1772 1773 1
1680 1773 1774 1
1681 1774 1775 1
1682 1775 1776 1
1683 1776 1777 1
1684 1777 1778 1
1685 1778 1779 1
1686 1779 1780 1
1687 1780 1781 1
1688 1781 1782 1
1689 1782 1783 1
1690 1783 1784 1
1691 1784 1785 1
1692 1785 1786 1
1693 1787 1788 1
1694 1788 1789 1
1695 1789 1790 1
1696 1790 1791 1
1697 1791 1792 1
1698 1792 1793 1
1699 1793 1794 1
1700 1794 1795 1
1701 1795 1796 1
1702 1796 1797 1
1703 1797 1798 1
1704 1798 1799 1
1705 1799 1800 1
1706 1800 1801 1
1707 1801 1802 1
1708 1802 1803 1
1709 1803 1804 1
1710 1804 1805 1
1711 1806 1807 1
1712 1807 1808 1
1713 1808 1809 1
1714 1809 1810 1
1715 1810 1811 1
1716 1811 1812 1
1717 1812 1813 1
1718 1813 1814 1
1719 1814 1815 1
1720 1815 1816 1
1721 1816 1817 1
1722 1817 1818 1
1723 1818 1819 1
1724 1819 1820 1
1725 1820 1821 1
1726 1821 1822 1
1727 1822 1823 1
1728 1823 1824 1
1729 1825 1826 1
1730 1826 1827 1
1731 1827 1828 1
1732 1828 1829 1
1733 1829 1830 1
1734 1830 1831 1
1735 1831 1832 1
1736 1832 1833 1
1737 1833 1834 1
1738 1834 1835 1
1739 1835 1836 1
1740 1836 1837 1
1741 1837 1838 1
1742 1838 1839 1
1743 1839 1840 1
1744 1840 1841 1
1745 1841 1842 1
1746 1842 1843 1
1747 1844 1845 1
1748 1845 1846 1
1749 1846 1847 1
1750 1847 1848 1
1751 1848 1849 1
1752 1849 1850 1
1753 1850 1851 1
1754 1851 1852 1
1755 1852 1853 1
1756 1853 1854 1
1757 1854 1855 1
1758 1855 1856 1
1759 1856 1857 1
1760 1857 1858 1
1761 1858 1859 1
1762 1859 1860 1
1763 1860 1861 1
1764 1861 1862 1
1765 1863 1864 1
1766 1864 1865 1
1767 1865 1866 1
1768 1866 1867 1
1769 1867 1868 1
1770 1868 1869 1
1771 1869 1870 1
1772 1870 1871 1
1773 1871 1872 1
1774 1872 1873 1
1775 1873 1874 1
1776 1874 1875 1
1777 1875 1876 1
1778 1876 1877 1
1779 1877 1878 1
1780 1878 1879 1
1781 1879 1880 1
1782 1880 1881 1
1783 1882 1883 1
1784 1883 1884 1
1785 1884 1885 1
1786 1885 1886 1
1787 1886 1887 1
1788 1887 1888 1
1789 1888 1889 1
1790 1889 1890 1
1791 1890 1891 1
1792 1891 1892 1
1793 1892 1893 1
1794 1893 1894 1
1795 1894 1895 1
1796 1895 1896 1
1797 1896 1897 1
1798 1897 1898 1
1799 1898 1899 1
1800 1899 1900 1
1801 1901 1902 1
1802 1902 1903 1
1803 1903 1904 1
1804 1904 1905 1
1805 1905 1906 1
1806 1906 1907 1
1807 1907 1908 1
1808 1908 1909 1
1809 1909 1910 1
1810 1910 1911 1
1811 1911 1912 1
1812 1912 1913 1
1813 1913 1914 1
1814 1914 1915 1
1815 1915 1916 1
1816 1916 1917 1
1817 1917 1918 1
1818 1918 1919 1
1819 1920 1921 1
1820 1921 1922 1
1821 1922 1923 1
1822 1923 1924 1
1823 1924 1925 1
1824 1925 1926 1
1825 1926 1927 1
1826 1927 1928 1
1827 1928 1929 1
1828 1929 1930 1
1829 1930 1931 1
1830 1931 1932 1
1831 1932 1933 1
1832 1933 1934 1
1833 1934 1935 1
1834 1935 1936 1
1835 1936 1937 1
1836 1937 1938 1
1837 1939 1940 1
1838 1940 1941 1
1839 1941 1942 1
1840 1942 1943 1
1841 1943 1944 1
1842 1944 1945 1
1843 1945 1946 1
1844 1946 1947 1
1845 1947 1948 1
1846 1948 1949 1
1847 1949 1950 1
1848 1950 1951 1
1849 1951 1952 1
1850 1952 1953 1
1851 1953 1954 1
1852 1954 1955 1
1853 1955 1956 1
1854 1956 1957 1
1855 1958 1959 1
1856 1959 1960 1
1857 1960 1961 1
1858 1961 1962 1
1859 1962 1963 1
1860 1963 1964 1
1861 1964 1965 1
1862 1965 1966 1
1863 1966 1967 1
1864 1967 1968 1
1865 1968 1969 1
1866 1969 1970 1
1867 1970 1971 1
1868 1971 1972 1
1869 1972 1973 1
1870 1973 1974 1
1871 1974 1975 1
1872 1975 1976 1
1873 1977 1978 1
1874 1978 1979 1
1875 1979 1980 1
1876 1980 1981 1
1877 1981 1982 1
1878 1982 1983 1
1879 1983 1984 1
1880 1984 1985 1
1881 1985 1986 1
1882 1986 1987 1
1883 1987 1988 1
1884 1988 1989 1
1885 1989 1990 1
1886 1990 1991 1
1887 1991 1992 1
1888 1992 1993 1
1889 1993 1994 1
1890 1994 1995 1
1891 1996 1997 1
1892 1997 1998 1
1893 1998 1999 1
1894 1999 2000 1
1895 2000 2001 1
1896 2001 2002 1
1897 2002 2003 1
1898 2003 2004 1
1899 2004 2005 1
1900 2005 2006 1
1901 2006 2007 1
1902 2007 2008 1
1903 2008 2009 1
1904 2009 2010 1
1905 2010 2011 1
1906 2011 2012 1
1907 2012 2013 1
1908 2013 2014 1
1909 2015 2016 1
1910 2016 2017 1
1911 2017 2018 1
1912 2018 2019 1
1913 2019 2020 1
1914 2020 2021 1
1915 2021 2022 1
1916 2022 2023 1
1917 2023 2024 1
1918 2024 2025 1
1919 2025 2026 1
1920 2026 2027 1
1921 2027 2028 1
1922 2028 2029 1
1923 2029 2030 1
1924 2030 2031 1
1925 2031 2032 1
1926 2032 2033 1
1927 2034 2035 1
1928 2035 2036 1
1929 2036 2037 1
1930 2037 2038 1
1931 2038 2039 1
1932 2039 2040 1
1933 2040 2041 1
1934 2041 2042 1
1935 2042 2043 1
1936 2043 2044 1
1937 2044 2045 1
1938 2045 2046 1
1939 2046 2047 1
1940 2047 2048 1
1941 2048 2049 1
1942 2049 2050 1
1943 2050 2051 1
1944 2051 2052 1
1945 2053 2054 1
1946 2054 2055 1
1947 2055 2056 1
1948 2056 2057 1
1949 2057 2058 1
1950 2058 2059 1
1951 2059 2060 1
1952 2060 2061 1
1953 2061 2062 1
1954 2062 2063 1
1955 2063 2064 1
1956 2064 2065 1
1957 2065 2066 1
1958 2066 2067 1
1959 2067 2068 1
1960 2068 2069 1
1961 2069 2070 1
1962 2070 2071 1
1963 2072 2073 1
1964 2073 2074 1
1965 2074 2075 1
1966 2075 2076 1
1967 2076 2077 1
1968 2077 2078 1
1969 2078 2079 1
1970 2079 2080 1
1971 2080 2081 1
1972 2081 2082 1
1973 2082 2083 1
1974 2083 2084 1
1975 2084 2085 1
1976 2085 2086 1
1977 2086 2087 1
1978 2087 2088 1
1979 2088 2089 1
1980 2089 2090 1
1981 2091 2092 1
1982 2092 2093 1
1983 2093 2094 1
1984 2094 2095 1
1985 2095 2096 1
1986 2096 2097 1
1987 2097 2098 1
1988 2098 2099 1
1989 2099 2100 1
1990 2100 2101 1
1991 2101 2102 1
1992 2102 2103 1
1993 2103 2104 1
1994 2104 2105 1
1995 2105 2106 1
1996 2106 2107 1
1997 2107 2108 1
1998 2108 2109 1
1999 2110 2111 1
2000 2111 2112 1
2001 2112 2113 1
2002 2113 2114 1
2003 2114 2115 1
2004 2115 2116 1
2005 2116 2117 1
2006 2117 2118 1
2007 2118 2119 1
2008 2119 2120 1
2009 2120 2121 1
2010 2121 2122 1
2011 2122 2123 1
2012 2123 2124 1
2013 2124 2125 1
2014 2125 2126 1
2015 2126 2127 1
2016 2127 2128 1
2017 2129 2130 1
2018 2130 2131 1
2019 2131 2132 1
2020 2132 2133 1
2021 2133 2134 1
2022 2134 2135 1
2023 2135 2136 1
2024 2136 2137 1
2025 2137 2138 1
2026 2138 2139 1
2027 2139 2140 1
2028 2140 2141 1
2029 2141 2142 1
2030 2142 2143 1
2031 2143 2144 1
2032 2144 2145 1
2033 2145 2146 1
2034 2146 2147 1
2035 2148 2149 1
2036 2149 2150 1
2037 2150 2151 1
2038 2151 2152 1
2039 2152 2153 1
2040 2153 2154 1
2041 2154 2155 1
2042 2155 2156 1
2043 2156 2157 1
2044 2157 2158 1
2045 2158 2159 1
2046 2159 2160 1
2047 2160 2161 1
2048 2161 2162 1
2049 2162 2163 1
2050 2163 2164 1
2051 2164 2165 1
2052 2165 2166 1
2053 2167 2168 1
2054 2168 2169 1
2055 2169 2170 1
2056 2170 2171 1
2057 2171 2172 1
2058 2172 2173 1
2059 2173 2174 1
2060 2174 2175 1
2061 2175 2176 1
2062 2176 2177 1
2063 2177 2178 1
2064 2178 2179 1
2065 2179 2180 1
2066 2180 2181 1
2067 2181 2182 1
2068 2182 2183 1
2069 2183 2184 1
2070 2184 2185 1
2071 2186 2187 1
2072 2187 2188 1
2073 2188 2189 1
2074 2189 2190 1
2075 2190 2191 1
2076 2191 2192 1
2077 2192 2193 1
2078 2193 2194 1
2079 2194 2195 1
2080 2195 2196 1
2081 2196 2197 1
2082 2197 2198 1
2083 2198 2199 1
2084 2199 2200 1
2085 2200 2201 1
2086 2201 2202 1
2087 2202 2203 1
2088 2203 2204 1
2089 2205 2206 1
2090 2206 2207 1
2091 2207 2208 1
2092 2208 2209 1
2093 2209 2210 1
2094 2210 2211 1
2095 2211 2212 1
2096 2212 2213 1
2097 2213 2214 1
2098 2214 2215 1
2099 2215 2216 1
2100 2216 2217 1
2101 2217 2218 1
2102 2218 2219 1
2103 2219 2220 1
2104 2220 2221 1
2105 2221 2222 1
2106 2222 2223 1
2107 2224 2225 1
2108 2225 2226 1
2109 2226 2227 1
2110 2227 2228 1
2111 2228 2229 1
2112 2229 2230 1
2113 2230 2231 1
2114 2231 2232 1
2115 2232 2233 1
2116 2233 2234 1
2117 2234 2235 1
2118 2235 2236 1
2119 2236 2237 1
2120 2237 2238 1
2121 2238 2239 1
2122 2239 2240 1
2123 2240 2241 1
2124 2241 2242 1
2125 2243 2244 1
2126 2244 2245 1
2127 2245 2246 1
2128 2246 2247 1
2129 2247 2248 1
2130 2248 2249 1
2131 2249 2250 1
2132 2250 2251 1
2133 2251 2252 1
2134 2252 2253 1
2135 2253 2254 1
2136 2254 2255 1
2137 2255 2256 1
2138 2256 2257 1
2139 2257 2258 1
2140 2258 2259 1
2141 2259 2260 1
2142 2260 2261 1
2143 2262 2263 1
2144 2263 2264 1
2145 2264 2265 1
2146 2265 2266 1
2147 2266 2267 1
2148 2267 2268 1
2149 2268 2269 1
2150 2269 2270 1
2151 2270 2271 1
2152 2271 2272 1
2153 2272 2273 1
2154 2273 2274 1
2155 2274 2275 1
2156 2275 2276 1
2157 2276 2277 1
2158 2277 2278 1
2159 2278 2279 1
2160 2279 2280 1
2161 2281 2282 1
2162 2282 2283 1
2163 2283 2284 1
2164 2284 2285 1
2165 2285 2286 1
2166 2286 2287 1
2167 2287 2288 1
2168 2288 2289 1
2169 2289 2290 1
2170 2290 2291 1
2171 2291 2292 1
2172 2292 2293 1
2173 2293 2294 1
2174 2294 2295 1
2175 2295 2296 1
2176 2296 2297 1
2177 2297 2298 1
2178 2298 2299 1
2179 2300 2301 1
2180 2301 2302 1
2181 2302 2303 1
2182 2303 2304 1
2183 2304 2305 1
2184 2305 2306 1
2185 2306 2307 1
2186 2307 2308 1
2187 2308 2309 1
2188 2309 2310 1
2189 2310 2311 1
2190 2311 2312 1
2191 2312 2313 1
2192 2313 2314 1
2193 2314 2315 1
2194 2315 2316 1
2195 2316 2317 1
2196 2317 2318 1
2197 2319 2320 1
2198 2320 2321 1
2199 2321 2322 1
2200 2322 2323 1
2201 2323 2324 1
2202 2324 2325 1
2203 2325 2326 1
2204 2326 2327 1
2205 2327 2328 1
2206 2328 2329 1
2207 2329 2330 1
2208 2330 2331 1
2209 2331 2332 1
2210 2332 2333 1
2211 2333 2334 1
2212 2334 2335 1
2213 2335 2336 1
2214 2336 2337 1
2215 2338 2339 1
2216 2339 2340 1
2217 2340 2341 1
2218 2341 2342 1
2219 2342 2343 1
2220 2343 2344 1
2221 2344 2345 1
2222 2345 2346 1
2223 2346 2347 1
2224 2347 2348 1
2225 2348 2349 1
2226 2349 2350 1
2227 2350 2351 1
2228 2351 2352 1
2229 2352 2353 1
2230 2353 2354 1
2231 2354 2355 1
2232 2355 2356 1
2233 2357 2358 1
2234 2358 2359 1
2235 2359 2360 1
2236 2360 2361 1
2237 2361 2362 1
2238 2362 2363 1
2239 2363 2364 1
2240 2364 2365 1
2241 2365 2366 1
2242 2366 2367 1
2243 2367 2368 1
2244 2368 2369 1
2245 2369 2370 1
2246 2370 2371 1
2247 2371 2372 1
2248 2372 2373 1
2249 2373 2374 1
2250 2374 2375 1
2251 2376 2377 1
2252 2377 2378 1
2253 2378 2379 1
2254 2379 2380 1
2255 2380 2381 1
2256 2381 2382 1
2257 2382 2383 1
2258 2383 2384 1
2259 2384 2385 1
2260 2385 2386 1
2261 2386 2387 1
2262 2387 2388 1
2263 2388 2389 1
2264 2389 2390 1
2265 2390 2391 1
2266 2391 2392 1
2267 2392 2393 1
2268 2393 2394 1
2269 2395 2396 1
2270 2396 2397 1
2271 2397 2398 1
2272 2398 2399 1
2273 2399 2400 1
2274 2400 2401 1
2275 2401 2402 1
2276 2402 2403 1
2277 2403 2404 1
2278 2404 2405 1
2279 2405 2406 1
2280 2406 2407 1
2281 2407 2408 1
2282 2408 2409 1
2283 2409 2410 1
2284 2410 2411 1
2285 2411 2412 1
2286 2412 2413 1
2287 2414 2415 1
2288 2415 2416 1
2289 2416 2417 1
2290 2417 2418 1
2291 2418 2419 1
2292 2419 2420 1
2293 2420 2421 1
2294 2421 2422 1
2295 2422 2423 1
2296 2423 2424 1
2297 2424 2425 1
2298 2425 2426 1
2299 2426 2427 1
2300 2427 2428 1
2301 2428 2429 1
2302 2429 2430 1
2303 2430 2431 1
2304 2431 2432 1
2305 2433 2434 1
2306 2434 2435 1
2307 2435 2436 1
2308 2436 2437 1
2309 2437 2438 1
2310 2438 2439 1
2311 2439 2440 1
2312 2440 2441 1
2313 2441 2442 1
2314 2442 2443 1
2315 2443 2444 1
2316 2444 2445 1
2317 2445 2446 1
2318 2446 2447 1
2319 2447 2448 1
2320 2448 2449 1
2321 2449 2450 1
2322 2450 2451 1
2323 2452 2453 1
2324 2453 2454 1
2325 2454 2455 1
2326 2455 2456 1
2327 2456 2457 1
2328 2457 2458 1
2329 2458 2459 1
2330 2459 2460 1
2331 2460 2461 1
2332 2461 2462 1
2333 2462 2463 1
2334 2463 2464 1
2335 2464 2465 1
2336 2465 2466 1
2337 2466 2467 1
2338 2467 2468 1
2339 2468 2469 1
2340 2469 2470 1
2341 2471 2472 1
2342 2472 2473 1
2343 2473 2474 1
2344 2474 2475 1
2345 2475 2476 1
2346 2476 2477 1
2347 2477 2478 1
2348 2478 2479 1
2349 2479 2480 1
2350 2480 2481 1
2351 2481 2482 1
2352 2482 2483 1
2353 2483 2484 1
2354 2484 2485 1
2355 2485 2486 1
2356 2486 2487 1
2357 2487 2488 1
2358 2488 2489 1
2359 2490 2491 1
2360 2491 2492 1
2361 2492 2493 1
2362 2493 2494 1
2363 2494 2495 1
2364 2495 2496 1
2365 2496 2497 1
2366 2497 2498 1
2367 2498 2499 1
2368 2499 2500 1
2369 2500 2501 1
2370 2501 2502 1
2371 2502 2503 1
2372 2503 2504 1
2373 2504 2505 1
2374 2505 2506 1
2375 2506 2507 1
2376 2507 2508 1
2377 2509 2510 1
2378 2510 2511 1
2379 2511 2512 1
2380 2512 2513 1
2381 2513 2514 1
2382 2514 2515 1
2383 2515 2516 1
2384 2516 2517 1
2385 2517 2518 1
2386 2518 2519 1
2387 2519 2520 1
2388 2520 2521 1
2389 2521 2522 1
2390 2522 2523 1
2391 2523 2524 1
2392 2524 2525 1
2393 2525 2526 1
2394 2526 2527 1
2395 2528 2529 1
2396 2529 2530 1
2397 2530 2531 1
2398 2531 2532 1
2399 2532 2533 1
2400 2533 2534 1
2401 2534 2535 1
2402 2535 2536 1
2403 2536 2537 1
2404 2537 2538 1
2405 2538 2539 1
2406 2539 2540 1
2407 2540 2541 1
2408 2541 2542 1
2409 2542 2543 1
2410 2543 2544 1
2411 2544 2545 1
2412 2545 2546 1
2413 2547 2548 1
2414 2548 2549 1
2415 2549 2550 1
2416 2550 2551 1
2417 2551 2552 1
2418 2552 2553 1
2419 2553 2554 1
2420 2554 2555 1
2421 2555 2556 1
2422 2556 2557 1
2423 2557 2558 1
2424 2558 2559 1
2425 2559 2560 1
2426 2560 2561 1
2427 2561 2562 1
2428 2562 2563 1
2429 2563 2564 1
2430 2564 2565 1
2431 2566 2567 1
2432 2567 2568 1
2433 2568 2569 1
2434 2569 2570 1
2435 2570 2571 1
2436 2571 2572 1
2437 2572 2573 1
2438 2573 2574 1
2439 2574 2575 1
2440 2575 2576 1
2441 2576 2577 1
2442 2577 2578 1
2443 2578 2579 1
2444 2579 2580 1
2445 2580 2581 1
2446 2581 2582 1
2447 2582 2583 1
2448 2583 2584 1
2449 2585 2586 1
2450 2586 2587 1
2451 2587 2588 1
2452 2588 2589 1
2453 2589 2590 1
2454 2590 2591 1
2455 2591 2592 1
2456 2592 2593 1
2457 2593 2594 1
2458 2594 2595 1
2459 2595 2596 1
2460 2596 2597 1
2461 2597 2598 1
2462 2598 2599 1
2463 2599 2600 1
2464 2600 2601 1
2465 2601 2602 1
2466 2602 2603 1
2467 2604 2605 1
2468 2605 2606 1
2469 2606 2607 1
2470 2607 2608 1
2471 2608 2609 1
2472 2609 2610 1
2473 2610 2611 1
2474 2611 2612 1
2475 2612 2613 1
2476 2613 2614 1
2477 2614 2615 1
2478 2615 2616 1
2479 2616 2617 1
2480 2617 2618 1
2481 2618 2619 1
2482 2619 2620 1
2483 2620 2621 1
2484 2621 2622 1
2485 2623 2624 1
2486 2624 2625 1
2487 2625 2626 1
2488 2626 2627 1
2489 2627 2628 1
2490 2628 2629 1
2491 2629 2630 1
2492 2630 2631 1
2493 2631 2632 1
2494 2632 2633 1
2495 2633 2634 1
2496 2634 2635 1
2497 2635 2636 1
2498 2636 2637 1
2499 2637 2638 1
2500 2638 2639 1
2501 2639 2640 1
2502 2640 2641 1
2503 2642 2643 1
2504 2643 2644 1
2505 2644 2645 1
2506 2645 2646 1
2507 2646 2647 1
2508 2647 2648 1
2509 2648 2649 1
2510 2649 2650 1
2511 2650 2651 1
2512 2651 2652 1
2513 2652 2653 1
2514 2653 2654 1
2515 2654 2655 1
2516 2655 2656 1
2517 2656 2657 1
2518 2657 2658 1
2519 2658 2659 1
2520 2659 2660 1
2521 2661 2662 1
2522 2662 2663 1
2523 2663 2664 1
2524 2664 2665 1
2525 2665 2666 1
2526 2666 2667 1
2527 2667 2668 1
2528 2668 2669 1
2529 2669 2670 1
2530 2670 2671 1
2531 2671 2672 1
2532 2672 2673 1
2533 2673 2674 1
2534 2674 2675 1
2535 2675 2676 1
2536 2676 2677 1
2537 2677 2678 1
2538 2678 2679 1
2539 2680 2681 1
2540 2681 2682 1
2541 2682 2683 1
2542 2683 2684 1
2543 2684 2685 1
2544 2685 2686 1
2545 2686 2687 1
2546 2687 2688 1
2547 2688 2689 1
2548 2689 2690 1
2549 2690 2691 1
2550 2691 2692 1
2551 2692 2693 1
2552 2693 2694 1
2553 2694 2695 1
2554 2695 2696 1
2555 2696 2697 1
2556 2697 2698 1
2557 2699 2700 1
2558 2700 2701 1
2559 2701 2702 1
2560 2702 2703 1
2561 2703 2704 1
2562 2704 2705 1
2563 2705 2706 1
2564 2706 2707 1
2565 2707 2708 1
2566 2708 2709 1
2567 2709 2710 1
2568 2710 2711 1
2569 2711 2712 1
2570 2712 2713 1
2571 2713 2714 1
2572 2714 2715 1
2573 2715 2716 1
2574 2716 2717 1
2575 2718 2719 1
2576 2719 2720 1
2577 2720 2721 1
2578 2721 2722 1
2579 2722 2723 1
2580 2723 2724 1
2581 2724 2725 1
2582 2725 2726 1
2583 2726 2727 1
2584 2727 2728 1
2585 2728 2729 1
2586 2729 2730 1
2587 2730 2731 1
2588 2731 2732 1
2589 2732 2733 1
2590 2733 2734 1
2591 2734 2735 1
2592 2735 2736 1
2593 2737 2738 1
2594 2738 2739 1
2595 2739 2740 1
2596 2740 2741 1
2597 2741 2742 1
2598 2742 2743 1
2599 2743 2744 1
2600 2744 2745 1
2601 2745 2746 1
2602 2746 2747 1
2603 2747 2748 1
2604 2748 2749 1
2605 2749 2750 1
2606 2750 2751 1
2607 2751 2752 1
2608 2752 2753 1
2609 2753 2754 1
2610 2754 2755 1
2611 2756 2757 1
2612 2757 2758 1
2613 2758 2759 1
2614 2759 2760 1
2615 2760 2761 1
2616 2761 2762 1
2617 2762 2763 1
2618 2763 2764 1
2619 2764 2765 1
2620 2765 2766 1
2621 2766 2767 1
2622 2767 2768 1
2623 2768 2769 1
2624 2769 2770 1
2625 2770 2771 1
2626 2771 2772 1
2627 2772 2773 1
2628 2773 2774 1
2629 2775 2776 1
2630 2776 2777 1
2631 2777 2778 1
2632 2778 2779 1
2633 2779 2780 1
2634 2780 2781 1
2635 2781 2782 1
2636 2782 2783 1
2637 2783 2784 1
2638 2784 2785 1
2639 2785 2786 1
2640 2786 2787 1
2641 2787 2788 1
2642 2788 2789 1
2643 2789 2790 1
2644 2790 2791 1
2645 2791 2792 1
2646 2792 2793 1
2647 2794 2795 1
2648 2795 2796 1
2649 2796 2797 1
2650 2797 2798 1
2651 2798 2799 1
2652 2799 2800 1
2653 2800 2801 1
2654 2801 2802 1
2655 2802 2803 1
2656 2803 2804 1
2657 2804 2805 1
2658 2805 2806 1
2659 2806 2807 1
2660 2807 2808 1
2661 2808 2809 1
2662 2809 2810 1
2663 2810 2811 1
2664 2811 2812 1
2665 2813 2814 1
2666 2814 2815 1
2667 2815 2816 1
2668 2816 2817 1
2669 2817 2818 1
2670 2818 2819 1
2671 2819 2820 1
2672 2820 2821 1
2673 2821 2822 1
2674 2822 2823 1
2675 2823 2824 1
2676 2824 2825 1
2677 2825 2826 1
2678 2826 2827 1
2679 2827 2828 1
2680 2828 2829 1
2681 2829 2830 1
2682 2830 2831 1
2683 2832 2833 1
2684 2833 2834 1
2685 2834 2835 1
2686 2835 2836 1
2687 2836 2837 1
2688 2837 2838 1
2689 2838 2839 1
2690 2839 2840 1
2691 2840 2841 1
2692 2841 2842 1
2693 2842 2843 1
2694 2843 2844 1
2695 2844 2845 1
2696 2845 2846 1
2697 2846 2847 1
2698 2847 2848 1
2699 2848 2849 1
2700 2849 2850 1
2701 2851 2852 1
2702 2852 2853 1
2703 2853 2854 1
2704 2854 2855 1
2705 2855 2856 1
2706 2856 2857 1
2707 2857 2858 1
2708 2858 2859 1
2709 2859 2860 1
2710 2860 2861 1
2711 2861 2862 1
2712 2862 2863 1
2713 2863 2864 1
2714 2864 2865 1
2715 2865 2866 1
2716 2866 2867 1
2717 2867 2868 1
2718 2868 2869 1
2719 2870 2871 1
2720 2871 2872 1
2721 2872 2873 1
2722 2873 2874 1
2723 2874 2875 1
2724 2875 2876 1
2725 2876 2877 1
2726 2877 2878 1
2727 2878 2879 1
2728 2879 2880 1
2729 2880 2881 1
2730 2881 2882 1
2731 2882 2883 1
2732 2883 2884 1
2733 2884 2885 1
2734 2885 2886 1
2735 2886 2887 1
2736 2887 2888 1
2737 2889 2890 1
2738 2890 2891 1
2739 2891 2892 1
2740 2892 2893 1
2741 2893 2894 1
2742 2894 2895 1
2743 2895 2896 1
2744 2896 2897 1
2745 2897 2898 1
2746 2898 2899 1
2747 2899 2900 1
2748 2900 2901 1
2749 2901 2902 1
2750 2902 2903 1
2751 2903 2904 1
2752 2904 2905 1
2753 2905 2906 1
2754 2906 2907 1
2755 2908 2909 1
2756 2909 2910 1
2757 2910 2911 1
2758 2911 2912 1
2759 2912 2913 1
2760 2913 2914 1
2761 2914 2915 1
2762 2915 2916 1
2763 2916 2917 1
2764 2917 2918 1
2765 2918 2919 1
2766 2919 2920 1
2767 2920 2921 1
2768 2921 2922 1
2769 2922 2923 1
2770 2923 2924 1
2771 2924 2925 1
2772 2925 2926 1
2773 2927 2928 1
2774 2928 2929 1
2775 2929 2930 1
2776 2930 2931 1
2777 2931 2932 1
2778 2932 2933 1
2779 2933 2934 1
2780 2934 2935 1
2781 2935 2936 1
2782 2936 2937 1
2783 2937 2938 1
2784 2938 2939 1
2785 2939 2940 1
2786 2940 2941 1
2787 2941 2942 1
2788 2942 2943 1
2789 2943 2944 1
2790 2944 2945 1
2791 2946 2947 1
2792 2947 2948 1
2793 2948 2949 1
2794 2949 2950 1
2795 2950 2951 1
2796 2951 2952 1
2797 2952 2953 1
2798 2953 2954 1
2799 2954 2955 1
2800 2955 2956 1
2801 2956 2957 1
2802 2957 2958 1
2803 2958 2959 1
2804 2959 2960 1
2805 2960 2961 1
2806 2961 2962 1
2807 2962 2963 1
2808 2963 2964 1
2809 2965 2966 1
2810 2966 2967 1
2811 2967 2968 1
2812 2968 2969 1
2813 2969 2970 1
2814 2970 2971 1
2815 2971 2972 1
2816 2972 2973 1
2817 2973 2974 1
2818 2974 2975 1
2819 2975 2976 1
2820 2976 2977 1
2821 2977 2978 1
2822 2978 2979 1
2823 2979 2980 1
2824 2980 2981 1
2825 2981 2982 1
2826 2982 2983 1
2827 2984 2985 1
2828 2985 2986 1
2829 2986 2987 1
2830 2987 2988 1
2831 2988 2989 1
2832 2989 2990 1
2833 2990 2991 1
2834 2991 2992 1
2835 2992 2993 1
2836 2993 2994 1
2837 2994 2995 1
2838 2995 2996 1
2839 2996 2997 1
2840 2997 2998 1
2841 2998 2999 1
2842 2999 3000 1
2843 3000 3001 1
2844 3001 3002 1
2845 3003 3004 1
2846 3004 3005 1
2847 3005 3006 1
2848 3006 3007 1
2849 3007 3008 1
2850 3008 3009 1
2851 3009 3010 1
2852 3010 3011 1
2853 3011 3012 1
2854 3012 3013 1
2855 3013 3014 1
2856 3014 3015 1
2857 3015 3016 1
2858 3016 3017 1
2859 3017 3018 1
2860 3018 3019 1
2861 3019 3020 1
2862 3020 3021 1
2863 3022 3023 1
2864 3023 3024 1
2865 3024 3025 1
2866 3025 3026 1
2867 3026 3027 1
2868 3027 3028 1
2869 3028 3029 1
2870 3029 3030 1
2871 3030 3031 1
2872 3031 3032 1
2873 3032 3033 1
2874 3033 3034 1
2875 3034 3035 1
2876 3035 3036 1
2877 3036 3037 1
2878 3037 3038 1
2879 3038 3039 1
2880 3039 3040 1
2881 3041 3042 1
2882 3042 3043 1
2883 3043 3044 1
2884 3044 3045 1
2885 3045 3046 1
2886 3046 3047 1
2887 3047 3048 1
2888 3048 3049 1
2889 3049 3050 1
2890 3050 3051 1
2891 3051 3052 1
2892 3052 3053 1
2893 3053 3054 1
2894 3054 3055 1
2895 3055 3056 1
2896 3056 3057 1
2897 3057 3058 1
2898 3058 3059 1
2899 3060 3061 1
2900 3061 3062 1
2901 3062 3063 1
2902 3063 3064 1
2903 3064 3065 1
2904 3065 3066 1
2905 3066 3067 1
2906 3067 3068 1
2907 3068 3069 1
2908 3069 3070 1
2909 3070 3071 1
2910 3071 3072 1
2911 3072 3073 1
2912 3073 3074 1
2913 3074 3075 1
2914 3075 3076 1
2915 3076 3077 1
2916 3077 3078 1
2917 3079 3080 1
2918 3080 3081 1
2919 3081 3082 1
2920 3082 3083 1
2921 3083 3084 1
2922 3084 3085 1
2923 3085 3086 1
2924 3086 3087 1
2925 3087 3088 1
2926 3088 3089 1
2927 3089 3090 1
2928 3090 3091 1
2929 3091 3092 1
2930 3092 3093 1
2931 3093 3094 1
2932 3094 3095 1
2933 3095 3096 1
2934 3096 3097 1
2935 3098 3099 1
2936 3099 3100 1
2937 3100 3101 1
2938 3101 3102 1
2939 3102 3103 1
2940 3103 3104 1
2941 3104 3105 1
2942 3105 3106 1
2943 3106 3107 1
2944 3107 3108 1
2945 3108 3109 1
2946 3109 3110 1
2947 3110 3111 1
2948 3111 3112 1
2949 3112 3113 1
2950 3113 3114 1
2951 3114 3115 1
2952 3115 3116 1
2953 3117 3118 1
2954 3118 3119 1
2955 3119 3120 1
2956 3120 3121 1
2957 3121 3122 1
2958 3122 3123 1
2959 3123 3124 1
2960 3124 3125 1
2961 3125 3126 1
2962 3126 3127 1
2963 3127 3128 1
2964 3128 3129 1
2965 3129 3130 1
2966 3130 3131 1
2967 3131 3132 1
2968 3132 3133 1
2969 3133 3134 1
2970 3134 3135 1
2971 3136 3137 1
2972 3137 3138 1
2973 3138 3139 1
2974 3139 3140 1
2975 3140 3141 1
2976 3141 3142 1
2977 3142 3143 1
2978 3143 3144 1
2979 3144 3145 1
2980 3145 3146 1
2981 3146 3147 1
2982 3147 3148 1
2983 3148 3149 1
2984 3149 3150 1
2985 3150 3151 1
2986 3151 3152 1
2987 3152 3153 1
2988 3153 3154 1
2989 3155 3156 1
2990 3156 3157 1
2991 3157 3158 1
2992 3158 3159 1
2993 3159 3160 1
2994 3160 3161 1
2995 3161 3162 1
2996 3162 3163 1
2997 3163 3164 1
2998 3164 3165 1
2999 3165 3166 1
3000 3166 3167 1
3001 3167 3168 1
3002 3168 3169 1
3003 3169 3170 1
3004 3170 3171 1
3005 3171 3172 1
3006 3172 3173 1
3007 3174 3175 1
3008 3175 3176 1
3009 3176 3177 1
3010 3177 3178 1
3011 3178 3179 1
3012 3179 3180 1
3013 3180 3181 1
3014 3181 3182 1
3015 3182 3183 1
3016 3183 3184 1
3017 3184 3185 1
3018 3185 3186 1
3019 3186 3187 1
3020 3187 3188 1
3021 3188 3189 1
3022 3189 3190 1
3023 3190 3191 1
3024 3191 3192 1
3025 3193 3194 1
3026 3194 3195 1
3027 3195 3196 1
3028 3196 3197 1
3029 3197 3198 1
3030 3198 3199 1
3031 3199 3200 1
3032 3200 3201 1
3033 3201 3202 1
3034 3202 3203 1
3035 3203 3204 1
3036 3204 3205 1
3037 3205 3206 1
3038 3206 3207 1
3039 3207 3208 1
3040 3208 3209 1
3041 3209 3210 1
3042 3210 3211 1
3043 3212 3213 1
3044 3213 3214 1
3045 3214 3215 1
3046 3215 3216 1
3047 3216 3217 1
3048 3217 3218 1
3049 3218 3219 1
3050 3219 3220 1
3051 3220 3221 1
3052 3221 3222 1
3053 3222 3223 1
3054 3223 3224 1
3055 3224 3225 1
3056 3225 3226 1
3057 3226 3227 1
3058 3227 3228 1
3059 3228 3229 1
3060 3229 3230 1
3061 3231 3232 1
3062 3232 3233 1
3063 3233 3234 1
3064 3234 3235 1
3065 3235 3236 1
3066 3236 3237 1
3067 3237 3238 1
3068 3238 3239 1
3069 3239 3240 1
3070 3240 3241 1
3071 3241 3242 1
3072 3242 3243 1
3073 3243 3244 1
3074 3244 3245 1
3075 3245 3246 1
3076 3246 3247 1
3077 3247 3248 1
3078 3248 3249 1
3079 3250 3251 1
3080 3251 3252 1
3081 3252 3253 1
3082 3253 3254 1
3083 3254 3255 1
3084 3255 3256 1
3085 3256 3257 1
3086 3257 3258 1
3087 3258 3259 1
3088 3259 3260 1
3089 3260 3261 1
3090 3261 3262 1
3091 3262 3263 1
3092 3263 3264 1
3093 3264 3265 1
3094 3265 3266 1
3095 3266 3267 1
3096 3267 3268 1
3097 3269 3270 1
3098 3270 3271 1
3099 3271 3272 1
3100 3272 3273 1
3101 3273 3274 1
3102 3274 3275 1
3103 3275 3276 1
3104 3276 3277 1
3105 3277 3278 1
3106 3278 3279 1
3107 3279 3280 1
3108 3280 3281 1
3109 3281 3282 1
3110 3282 3283 1
3111 3283 3284 1
3112 3284 3285 1
3113 3285 3286 1
3114 3286 3287 1
3115 3288 3289 1
3116 3289 3290 1
3117 3290 3291 1
3118 3291 3292 1
3119 3292 3293 1
3120 3293 3294 1
3121 3294 3295 1
3122 3295 3296 1
3123 3296 3297 1
3124 3297 3298 1
3125 3298 3299 1
3126 3299 3300 1
3127 3300 3301 1
3128 3301 3302 1
3129 3302 3303 1
3130 3303 3304 1
3131 3304 3305 1
3132 3305 3306 1
3133 3307 3308 1
3134 3308 3309 1
3135 3309 3310 1
3136 3310 3311 1
3137 3311 3312 1
3138 3312 3313 1
3139 3313 3314 1
3140 3314 3315 1
3141 3315 3316 1
3142 3316 3317 1
3143 3317 3318 1
3144 3318 3319 1
3145 3319 3320 1
3146 3320 3321 1
3147 3321 3322 1
3148 3322 3323 1
3149 3323 3324 1
3150 3324 3325 1
3151 3326 3327 1
3152 3327 3328 1
3153 3328 3329 1
3154 3329 3330 1
3155 3330 3331 1
3156 3331 3332 1
3157 3332 3333 1
3158 3333 3334 1
3159 3334 3335 1
3160 3335 3336 1
3161 3336 3337 1
3162 3337 3338 1
3163 3338 3339 1
3164 3339 3340 1
3165 3340 3341 1
3166 3341 3342 1
3167 3342 3343 1
3168 3343 3344 1
3169 3345 3346 1
3170 3346 3347 1
3171 3347 3348 1
3172 3348 3349 1
3173 3349 3350 1
3174 3350 3351 1
3175 3351 3352 1
3176 3352 3353 1
3177 3353 3354 1
3178 3354 3355 1
3179 3355 3356 1
3180 3356 3357 1
3181 3357 3358 1
3182 3358 3359 1
3183 3359 3360 1
3184 3360 3361 1
3185 3361 3362 1
3186 3362 3363 1
3187 3364 3365 1
3188 3365 3366 1
3189 3366 3367 1
3190 3367 3368 1
3191 3368 3369 1
3192 3369 3370 1
3193 3370 3371 1
3194 3371 3372 1
3195 3372 3373 1
3196 3373 3374 1
3197 3374 3375 1
3198 3375 3376 1
3199 3376 3377 1
3200 3377 3378 1
3201 3378 3379 1
3202 3379 3380 1
3203 3380 3381 1
3204 3381 3382 1
3205 3383 3384 1
3206 3384 3385 1
3207 3385 3386 1
3208 3386 3387 1
3209 3387 3388 1
3210 3388 3389 1
3211 3389 3390 1
3212 3390 3391 1
3213 3391 3392 1
3214 3392 3393 1
3215 3393 3394 1
3216 3394 3395 1
3217 3395 3396 1
3218 3396 3397 1
3219 3397 3398 1
3220 3398 3399 1
3221 3399 3400 1
3222 3400 3401 1
3223 3402 3403 1
3224 3403 3404 1
3225 3404 3405 1
3226 3405 3406 1
3227 3406 3407 1
3228 3407 3408 1
3229 3408 3409 1
3230 3409 3410 1
3231 3410 3411 1
3232 3411 3412 1
3233 3412 3413 1
3234 3413 3414 1
3235 3414 3415 1
3236 3415 3416 1
3237 3416 3417 1
3238 3417 3418 1
3239 3418 3419 1
3240 3419 3420 1
3241 3421 3422 1
3242 3422 3423 1
3243 3423 3424 1
3244 3424 3425 1
3245 3425 3426 1
3246 3426 3427 1
3247 3427 3428 1
3248 3428 3429 1
3249 3429 3430 1
3250 3430 3431 1
3251 3431 3432 1
3252 3432 3433 1
3253 3433 3434 1
3254 3434 3435 1
3255 3435 3436 1
3256 3436 3437 1
3257 3437 3438 1
3258 3438 3439 1
3259 3440 3441 1
3260 3441 3442 1
3261 3442 3443 1
3262 3443 3444 1
3263 3444 3445 1
3264 3445 3446 1
3265 3446 3447 1
3266 3447 3448 1
3267 3448 3449 1
3268 3449 3450 1
3269 3450 3451 1
3270 3451 3452 1
3271 3452 3453 1
3272 3453 3454 1
3273 3454 3455 1
3274 3455 3456 1
3275 3456 3457 1
3276 3457 3458 1
3277 3459 3460 1
3278 3460 3461 1
3279 3461 3462 1
3280 3462 3463 1
3281 3463 3464 1
3282 3464 3465 1
3283 3465 3466 1
3284 3466 3467 1
3285 3467 3468 1
3286 3468 3469 1
3287 3469 3470 1
3288 3470 3471 1
3289 3471 3472 1
3290 3472 3473 1
3291 3473 3474 1
3292 3474 3475 1
3293 3475 3476 1
3294 3476 3477 1
3295 3478 3479 1
3296 3479 3480 1
3297 3480 3481 1
3298 3481 3482 1
3299 3482 3483 1
3300 3483 3484 1
3301 3484 3485 1
3302 3485 3486 1
3303 3486 3487 1
3304 3487 3488 1
3305 3488 3489 1
3306 3489 3490 1
3307 3490 3491 1
3308 3491 3492 1
3309 3492 3493 1
3310 3493 3494 1
3311 3494 3495 1
3312 3495 3496 1
3313 3497 3498 1
3314 3498 3499 1
3315 3499 3500 1
3316 3500 3501 1
3317 3501 3502 1
3318 3502 3503 1
3319 3503 3504 1
3320 3504 3505 1
3321 3505 3506 1
3322 3506 3507 1
3323 3507 3508 1
3324 3508 3509 1
3325 3509 3510 1
3326 3510 3511 1
3327 3511 3512 1
3328 3512 3513 1
3329 3513 3514 1
3330 3514 3515 1
3331 3516 3517 1
3332 3517 3518 1
3333 3518 3519 1
3334 3519 3520 1
3335 3520 3521 1
3336 3521 3522 1
3337 3522 3523 1
3338 3523 3524 1
3339 3524 3525 1
3340 3525 3526 1
3341 3526 3527 1
3342 3527 3528 1
3343 3528 3529 1
3344 3529 3530 1
3345 3530 3531 1
3346 3531 3532 1
3347 3532 3533 1
3348 3533 3534 1
3349 3535 3536 1
3350 3536 3537 1
3351 3537 3538 1
3352 3538 3539 1
3353 3539 3540 1
3354 3540 3541 1
3355 3541 3542 1
3356 3542 3543 1
3357 3543 3544 1
3358 3544 3545 1
3359 3545 3546 1
3360 3546 3547 1
3361 3547 3548 1
3362 3548 3549 1
3363 3549 3550 1
3364 3550 3551 1
3365 3551 3552 1
3366 3552 3553 1
3367 3554 3555 1
3368 3555 3556 1
3369 3556 3557 1
3370 3557 3558 1
3371 3558 3559 1
3372 3559 3560 1
3373 3560 3561 1
3374 3561 3562 1
3375 3562 3563 1
3376 3563 3564 1
3377 3564 3565 1
3378 3565 3566 1
3379 3566 3567 1
3380 3567 3568 1
3381 3568 3569 1
3382 3569 3570 1
3383 3570 3571 1
3384 3571 3572 1
3385 3573 3574 1
3386 3574 3575 1
3387 3575 3576 1
3388 3576 3577 1
3389 3577 3578 1
3390 3578 3579 1
3391 3579 3580 1
3392 3580 3581 1
3393 3581 3582 1
3394 3582 3583 1
3395 3583 3584 1
3396 3584 3585 1
3397 3585 3586 1
3398 3586 3587 1
3399 3587 3588 1
3400 3588 3589 1
3401 3589 3590 1
3402 3590 3591 1
3403 3592 3593 1
3404 3593 3594 1
3405 3594 3595 1
3406 3595 3596 1
3407 3596 3597 1
3408 3597 3598 1
3409 3598 3599 1
3410 3599 3600 1
3411 3600 3601 1
3412 3601 3602 1
3413 3602 3603 1
3414 3603 3604 1
3415 3604 3605 1
3416 3605 3606 1
3417 3606 3607 1
3418 3607 3608 1
3419 3608 3609 1
3420 3609 3610 1
3421 3611 3612 1
3422 3612 3613 1
3423 3613 3614 1
3424 3614 3615 1
3425 3615 3616 1
3426 3616 3617 1
3427 3617 3618 1
3428 3618 3619 1
3429 3619 3620 1
3430 3620 3621 1
3431 3621 3622 1
3432 3622 3623 1
3433 3623 3624 1
3434 3624 3625 1
3435 3625 3626 1
3436 3626 3627 1
3437 3627 3628 1
3438 3628 3629 1
3439 3630 3631 1
3440 3631 3632 1
3441 3632 3633 1
3442 3633 3634 1
3443 3634 3635 1
3444 3635 3636 1
3445 3636 3637 1
3446 3637 3638 1
3447 3638 3639 1
3448 3639 3640 1
3449 3640 3641 1
3450 3641 3642 1
3451 3642 3643 1
3452 3643 3644 1
3453 3644 3645 1
3454 3645 3646 1
3455 3646 3647 1
3456 3647 3648 1
3457 3649 3650 1
3458 3650 3651 1
3459 3651 3652 1
3460 3652 3653 1
3461 3653 3654 1
3462 3654 3655 1
3463 3655 3656 1
3464 3656 3657 1
3465 3657 3658 1
3466 3658 3659 1
3467 3659 3660 1
3468 3660 3661 1
3469 3661 3662 1
3470 3662 3663 1
3471 3663 3664 1
3472 3664 3665 1
3473 3665 3666 1
3474 3666 3667 1
3475 3668 3669 1
3476 3669 3670 1
3477 3670 3671 1
3478 3671 3672 1
3479 3672 3673 1
3480 3673 3674 1
3481 3674 3675 1
3482 3675 3676 1
3483 3676 3677 1
3484 3677 3678 1
3485 3678 3679 1
3486 3679 3680 1
3487 3680 3681 1
3488 3681 3682 1
3489 3682 3683 1
3490 3683 3684 1
3491 3684 3685 1
3492 3685 3686 1
3493 3687 3688 1
3494 3688 3689 1
3495 3689 3690 1
3496 3690 3691 1
3497 3691 3692 1
3498 3692 3693 1
3499 3693 3694 1
3500 3694 3695 1
3501 3695 3696 1
3502 3696 3697 1
3503 3697 3698 1
3504 3698 3699 1
3505 3699 3700 1
3506 3700 3701 1
3507 3701 3702 1
3508 3702 3703 1
3509 3703 3704 1
3510 3704 3705 1
3511 3706 3707 1
3512 3707 3708 1
3513 3708 3709 1
3514 3709 3710 1
3515 3710 3711 1
3516 3711 3712 1
3517 3712 3713 1
3518 3713 3714 1
3519 3714 3715 1
3520 3715 3716 1
3521 3716 3717 1
3522 3717 3718 1
3523 3718 3719 1
3524 3719 3720 1
3525 3720 3721 1
3526 3721 3722 1
3527 3722 3723 1
3528 3723 3724 1
3529 3725 3726 1
3530 3726 3727 1
3531 3727 3728 1
3532 3728 3729 1
3533 3729 3730 1
3534 3730 3731 1
3535 3731 3732 1
3536 3732 3733 1
3537 3733 3734 1
3538 3734 3735 1
3539 3735 3736 1
3540 3736 3737 1
3541 3737 3738 1
3542 3738 3739 1
3543 3739 3740 1
3544 3740 3741 1
3545 3741 3742 1
3546 3742 3743 1
3547 3744 3745 1
3548 3745 3746 1
3549 3746 3747 1
3550 3747 3748 1
3551 3748 3749 1
3552 3749 3750 1
3553 3750 3751 1
3554 3751 3752 1
3555 3752 3753 1
3556 3753 3754 1
3557 3754 3755 1
3558 3755 3756 1
3559 3756 3757 1
3560 3757 3758 1
3561 3758 3759 1
3562 3759 3760 1
3563 3760 3761 1
3564 3761 3762 1
3565 3763 3764 1
3566 3764 3765 1
3567 3765 3766 1
3568 3766 3767 1
3569 3767 3768 1
3570 3768 3769 1
3571 3769 3770 1
3572 3770 3771 1
3573 3771 3772 1
3574 3772 3773 1
3575 3773 3774 1
3576 3774 3775 1
3577 3775 3776 1
3578 3776 3777 1
3579 3777 3778 1
3580 3778 3779 1
3581 3779 3780 1
3582 3780 3781 1
3583 3782 3783 1
3584 3783 3784 1
3585 3784 3785 1
3586 3785 3786 1
3587 3786 3787 1
3588 3787 3788 1
3589 3788 3789 1
3590 3789 3790 1
3591 3790 3791 1
3592 3791 3792 1
3593 3792 3793 1
3594 3793 3794 1
3595 3794 3795 1
3596 3795 3796 1
3597 3796 3797 1
3598 3797 3798 1
3599 3798 3799 1
3600 3799 3800 1
3601 3801 3802 1
3602 3802 3803 1
3603 3803 3804 1
3604 3804 3805 1
3605 3805 3806 1
3606 3806 3807 1
3607 3807 3808 1
3608 3808 3809 1
3609 3809 3810 1
3610 3810 3811 1
3611 3811 3812 1
3612 3812 3813 1
3613 3813 3814 1
3614 3814 3815 1
3615 3815 3816 1
3616 3816 3817 1
3617 3817 3818 1
3618 3818 3819 1
3619 3820 3821 1
3620 3821 3822 1
3621 3822 3823 1
3622 3823 3824 1
3623 3824 3825 1
3624 3825 3826 1
3625 3826 3827 1
3626 3827 3828 1
3627 3828 3829 1
3628 3829 3830 1
3629 3830 3831 1
3630 3831 3832 1
3631 3832 3833 1
3632 3833 3834 1
3633 3834 3835 1
3634 3835 3836 1
3635 3836 3837 1
3636 3837 3838 1
3637 3839 3840 1
3638 3840 3841 1
3639 3841 3842 1
3640 3842 3843 1
3641 3843 3844 1
3642 3844 3845 1
3643 3845 3846 1
3644 3846 3847 1
3645 3847 3848 1
3646 3848 3849 1
3647 3849 3850 1
3648 3850 3851 1
3649 3851 3852 1
3650 3852 3853 1
3651 3853 3854 1
3652 3854 3855 1
3653 3855 3856 1
3654 3856 3857 1
3655 3858 3859 1
3656 3859 3860 1
3657 3860 3861 1
3658 3861 3862 1
3659 3862 3863 1
3660 3863 3864 1
3661 3864 3865 1
3662 3865 3866 1
3663 3866 3867 1
3664 3867 3868 1
3665 3868 3869 1
3666 3869 3870 1
3667 3870 3871 1
3668 3871 3872 1
3669 3872 3873 1
3670 3873 3874 1
3671 3874 3875 1
3672 3875 3876 1
3673 3877 3878 1
3674 3878 3879 1
3675 3879 3880 1
3676 3880 3881 1
3677 3881 3882 1
3678 3882 3883 1
3679 3883 3884 1
3680 3884 3885 1
3681 3885 3886 1
3682 3886 3887 1
3683 3887 3888 1
3684 3888 3889 1
3685 3889 3890 1
3686 3890 3891 1
3687 3891 3892 1
3688 3892 3893 1
3689 3893 3894 1
3690 3894 3895 1
3691 3896 3897 1
3692 3897 3898 1
3693 3898 3899 1
3694 3899 3900 1
3695 3900 3901 1
3696 3901 3902 1
3697 3902 3903 1
3698 3903 3904 1
3699 3904 3905 1
3700 3905 3906 1
3701 3906 3907 1
3702 3907 3908 1
3703 3908 3909 1
3704 3909 3910 1
3705 3910 3911 1
3706 3911 3912 1
3707 3912 3913 1
3708 3913 3914 1
3709 3915 3916 1
3710 3916 3917 1
3711 3917 3918 1
3712 3918 3919 1
3713 3919 3920 1
3714 3920 3921 1
3715 3921 3922 1
3716 3922 3923 1
3717 3923 3924 1
3718 3924 3925 1
3719 3925 3926 1
3720 3926 3927 1
3721 3927 3928 1
3722 3928 3929 1
3723 3929 3930 1
3724 3930 3931 1
3725 3931 3932 1
3726 3932 3933 1
3727 3934 3935 1
3728 3935 3936 1
3729 3936 3937 1
3730 3937 3938 1
3731 3938 3939 1
3732 3939 3940 1
3733 3940 3941 1
3734 3941 3942 1
3735 3942 3943 1
3736 3943 3944 1
3737 3944 3945 1
3738 3945 3946 1
3739 3946 3947 1
3740 3947 3948 1
3741 3948 3949 1
3742 3949 3950 1
3743 3950 3951 1
3744 3951 3952 1
3745 3953 3954 1
3746 3954 3955 1
3747 3955 3956 1
3748 3956 3957 1
3749 3957 3958 1
3750 3958 3959 1
3751 3959 3960 1
3752 3960 3961 1
3753 3961 3962 1
3754 3962 3963 1
3755 3963 3964 1
3756 3964 3965 1
3757 3965 3966 1
3758 3966 3967 1
3759 3967 3968 1
3760 3968 3969 1
3761 3969 3970 1
3762 3970 3971 1
3763 3972 3973 1
3764 3973 3974 1
3765 3974 3975 1
3766 3975 3976 1
3767 3976 3977 1
3768 3977 3978 1
3769 3978 3979 1
3770 3979 3980 1
3771 3980 3981 1
3772 3981 3982 1
3773 3982 3983 1
3774 3983 3984 1
3775 3984 3985 1
3776 3985 3986 1
3777 3986 3987 1
3778 3987 3988 1
3779 3988 3989 1
3780 3989 3990 1
3781 3991 3992 1
3782 3992 3993 1
3783 3993 3994 1
3784 3994 3995 1
3785 3995 3996 1
3786 3996 3997 1
3787 3997 3998 1
3788 3998 3999 1
3789 3999 4000 1
3790 4000 4001 1
3791 4001 4002 1
3792 4002 4003 1
3793 4003 4004 1
3794 4004 4005 1
3795 4005 4006 1
3796 4006 4007 1
3797 4007 4008 1
3798 4008 4009 1
3799 4010 4011 1
3800 4011 4012 1
3801 4012 4013 1
3802 4013 4014 1
3803 4014 4015 1
3804 4015 4016 1
3805 4016 4017 1
3806 4017 4018 1
3807 4018 4019 1
3808 4019 4020 1
3809 4020 4021 1
3810 4021 4022 1
3811 4022 4023 1
3812 4023 4024 1
3813 4024 4025 1
3814 4025 4026 1
3815 4026 4027 1
3816 4027 4028 1
3817 4029 4030 1
3818 4030 4031 1
3819 4031 4032 1
3820 4032 4033 1
3821 4033 4034 1
3822 4034 4035 1
3823 4035 4036 1
3824 4036 4037 1
3825 4037 4038 1
3826 4038 4039 1
3827 4039 4040 1
3828 4040 4041 1
3829 4041 4042 1
3830 4042 4043 1
3831 4043 4044 1
3832 4044 4045 1
3833 4045 4046 1
3834 4046 4047 1
3835 4048 4049 1
3836 4049 4050 1
3837 4050 4051 1
3838 4051 4052 1
3839 4052 4053 1
3840 4053 4054 1
3841 4054 4055 1
3842 4055 4056 1
3843 4056 4057 1
3844 4057 4058 1
3845 4058 4059 1
3846 4059 4060 1
3847 4060 4061 1
3848 4061 4062 1
3849 4062 4063 1
3850 4063 4064 1
3851 4064 4065 1
3852 4065 4066 1
3853 4067 4068 1
3854 4068 4069 1
3855 4069 4070 1
3856 4070 4071 1
3857 4071 4072 1
3858 4072 4073 1
3859 4073 4074 1
3860 4074 4075 1
3861 4075 4076 1
3862 4076 4077 1
3863 4077 4078 1
3864 4078 4079 1
3865 4079 4080 1
3866 4080 4081 1
3867 4081 4082 1
3868 4082 4083 1
3869 4083 4084 1
3870 4084 4085 1
3871 4086 4087 1
3872 4087 4088 1
3873 4088 4089 1
3874 4089 4090 1
3875 4090 4091 1
3876 4091 4092 1
3877 4092 4093 1
3878 4093 4094 1
3879 4094 4095 1
3880 4095 4096 1
3881 4096 4097 1
3882 4097 4098 1
3883 4098 4099 1
3884 4099 4100 1
3885 4100 4101 1
3886 4101 4102 1
3887 4102 4103 1
3888 4103 4104 1
3889 4105 4106 1
3890 4106 4107 1
3891 4107 4108 1
3892 4108 4109 1
3893 4109 4110 1
3894 4110 4111 1
3895 4111 4112 1
3896 4112 4113 1
3897 4113 4114 1
3898 4114 4115 1
3899 4115 4116 1
3900 4116 4117 1
3901 4117 4118 1
3902 4118 4119 1
3903 4119 4120 1
3904 4120 4121 1
3905 4121 4122 1
3906 4122 4123 1
3907 4124 4125 1
3908 4125 4126 1
3909 4126 4127 1
3910 4127 4128 1
3911 4128 4129 1
3912 4129 4130 1
3913 4130 4131 1
3914 4131 4132 1
3915 4132 4133 1
3916 4133 4134 1
3917 4134 4135 1
3918 4135 4136 1
3919 4136 4137 1
3920 4137 4138 1
3921 4138 4139 1
3922 4139 4140 1
3923 4140 4141 1
3924 4141 4142 1
3925 4143 4144 1
3926 4144 4145 1
3927 4145 4146 1
3928 4146 4147 1
3929 4147 4148 1
3930 4148 4149 1
3931 4149 4150 1
3932 4150 4151 1
3933 4151 4152 1
3934 4152 4153 1
3935 4153 4154 1
3936 4154 4155 1
3937 4155 4156 1
3938 4156 4157 1
3939 4157 4158 1
3940 4158 4159 1
3941 4159 4160 1
3942 4160 4161 1
3943 4162 4163 1
3944 4163 4164 1
3945 4164 4165 1
3946 4165 4166 1
3947 4166 4167 1
3948 4167 4168 1
3949 4168 4169 1
3950 4169 4170 1
3951 4170 4171 1
3952 4171 4172 1
3953 4172 4173 1
3954 4173 4174 1
3955 4174 4175 1
3956 4175 4176 1
3957 4176 4177 1
3958 4177 4178 1
3959 4178 4179 1
3960 4179 4180 1
3961 4181 4182 1
3962 4182 4183 1
3963 4183 4184 1
3964 4184 4185 1
3965 4185 4186 1
3966 4186 4187 1
3967 4187 4188 1
3968 4188 4189 1
3969 4189 4190 1
3970 4190 4191 1
3971 4191 4192 1
3972 4192 4193 1
3973 4193 4194 1
3974 4194 4195 1
3975 4195 4196 1
3976 4196 4197 1
3977 4197 4198 1
3978 4198 4199 1
3979 4200 4201 1
3980 4201 4202 1
3981 4202 4203 1
3982 4203 4204 1
3983 4204 4205 1
3984 4205 4206 1
3985 4206 4207 1
3986 4207 4208 1
3987 4208 4209 1
3988 4209 4210 1
3989 4210 4211 1
3990 4211 4212 1
3991 4212 4213 1
3992 4213 4214 1
3993 4214 4215 1
3994 4215 4216 1
3995 4216 4217 1
3996 4217 4218 1
3997 4219 4220 1
3998 4220 4221 1
3999 4221 4222 1
4000 4222 4223 1
4001 4223 4224 1
4002 4224 4225 1
4003 4225 4226 1
4004 4226 4227 1
4005 4227 4228 1
4006 4228 4229 1
4007 4229 4230 1
4008 4230 4231 1
4009 4231 4232 1
4010 4232 4233 1
4011 4233 4234 1
4012 4234 4235 1
4013 4235 4236 1
4014 4236 4237 1
4015 4238 4239 1
4016 4239 4240 1
4017 4240 4241 1
4018 4241 4242 1
4019 4242 4243 1
4020 4243 4244 1
4021 4244 4245 1
4022 4245 4246 1
4023 4246 4247 1
4024 4247 4248 1
4025 4248 4249 1
4026 4249 4250 1
4027 4250 4251 1
4028 4251 4252 1
4029 4252 4253 1
4030 4253 4254 1
4031 4254 4255 1
4032 4255 4256 1
4033 4257 4258 1
4034 4258 4259 1
4035 4259 4260 1
4036 4260 4261 1
4037 4261 4262 1
4038 4262 4263 1
4039 4263 4264 1
4040 4264 4265 1
4041 4265 4266 1
4042 4266 4267 1
4043 4267 4268 1
4044 4268 4269 1
4045 4269 4270 1
4046 4270 4271 1
4047 4271 4272 1
4048 4272 4273 1
4049 4273 4274 1
4050 4274 4275 1
4051 4276 4277 1
4052 4277 4278 1
4053 4278 4279 1
4054 4279 4280 1
4055 4280 4281 1
4056 4281 4282 1
4057 4282 4283 1
4058 4283 4284 1
4059 4284 4285 1
4060 4285 4286 1
4061 4286 4287 1
4062 4287 4288 1
4063 4288 4289 1
4064 4289 4290 1
4065 4290 4291 1
4066 4291 4292 1
4067 4292 4293 1
4068 4293 4294 1
4069 4295 4296 1
4070 4296 4297 1
4071 4297 4298 1
4072 4298 4299 1
4073 4299 4300 1
4074 4300 4301 1
4075 4301 4302 1
4076 4302 4303 1
4077 4303 4304 1
4078 4304 4305 1
4079 4305 4306 1
4080 4306 4307 1
4081 4307 4308 1
4082 4308 4309 1
4083 4309 4310 1
4084 4310 4311 1
4085 4311 4312 1
4086 4312 4313 1
4087 4314 4315 1
4088 4315 4316 1
4089 4316 4317 1
4090 4317 4318 1
4091 4318 4319 1
4092 4319 4320 1
4093 4320 4321 1
4094 4321 4322 1
4095 4322 4323 1
4096 4323 4324 1
4097 4324 4325 1
4098 4325 4326 1
4099 4326 4327 1
4100 4327 4328 1
4101 4328 4329 1
4102 4329 4330 1
4103 4330 4331 1
4104 4331 4332 1
4105 4333 4334 1
4106 4334 4335 1
4107 4335 4336 1
4108 4336 4337 1
4109 4337 4338 1
4110 4338 4339 1
4111 4339 4340 1
4112 4340 4341 1
4113 4341 4342 1
4114 4342 4343 1
4115 4343 4344 1
4116 4344 4345 1
4117 4345 4346 1
4118 4346 4347 1
4119 4347 4348 1
4120 4348 4349 1
4121 4349 4350 1
4122 4350 4351 1
4123 4352 4353 1
4124 4353 4354 1
4125 4354 4355 1
4126 4355 4356 1
4127 4356 4357 1
4128 4357 4358 1
4129 4358 4359 1
4130 4359 4360 1
4131 4360 4361 1
4132 4361 4362 1
4133 4362 4363 1
4134 4363 4364 1
4135 4364 4365 1
4136 4365 4366 1
4137 4366 4367 1
4138 4367 4368 1
4139 4368 4369 1
4140 4369 4370 1
4141 4371 4372 1
4142 4372 4373 1
4143 4373 4374 1
4144 4374 4375 1
4145 4375 4376 1
4146 4376 4377 1
4147 4377 4378 1
4148 4378 4379 1
4149 4379 4380 1
4150 4380 4381 1
4151 4381 4382 1
4152 4382 4383 1
4153 4383 4384 1
4154 4384 4385 1
4155 4385 4386 1
4156 4386 4387 1
4157 4387 4388 1
4158 4388 4389 1
4159 4390 4391 1
4160 4391 4392 1
4161 4392 4393 1
4162 4393 4394 1
4163 4394 4395 1
4164 4395 4396 1
4165 4396 4397 1
4166 4397 4398 1
4167 4398 4399 1
4168 4399 4400 1
4169 4400 4401 1
4170 4401 4402 1
4171 4402 4403 1
4172 4403 4404 1
4173 4404 4405 1
4174 4405 4406 1
4175 4406 4407 1
4176 4407 4408 1
4177 4409 4410 1
4178 4410 4411 1
4179 4411 4412 1
4180 4412 4413 1
4181 4413 4414 1
4182 4414 4415 1
4183 4415 4416 1
4184 4416 4417 1
4185 4417 4418 1
4186 4418 4419 1
4187 4419 4420 1
4188 4420 4421 1
4189 4421 4422 1
4190 4422 4423 1
4191 4423 4424 1
4192 4424 4425 1
4193 4425 4426 1
4194 4426 4427 1
4195 4428 4429 1
4196 4429 4430 1
4197 4430 4431 1
4198 4431 4432 1
4199 4432 4433 1
4200 4433 4434 1
4201 4434 4435 1
4202 4435 4436 1
4203 4436 4437 1
4204 4437 4438 1
4205 4438 4439 1
4206 4439 4440 1
4207 4440 4441 1
4208 4441 4442 1
4209 4442 4443 1
4210 4443 4444 1
4211 4444 4445 1
4212 4445 4446 1
4213 4447 4448 1
4214 4448 4449 1
4215 4449 4450 1
4216 4450 4451 1
4217 4451 4452 1
4218 4452 4453 1
4219 4453 4454 1
4220 4454 4455 1
4221 4455 4456 1
4222 4456 4457 1
4223 4457 4458 1
4224 4458 4459 1
4225 4459 4460 1
4226 4460 4461 1
4227 4461 4462 1
4228 4462 4463 1
4229 4463 4464 1
4230 4464 4465 1
4231 4466 4467 1
4232 4467 4468 1
4233 4468 4469 1
4234 4469 4470 1
4235 4470 4471 1
4236 4471 4472 1
4237 4472 4473 1
4238 4473 4474 1
4239 4474 4475 1
4240 4475 4476 1
4241 4476 4477 1
4242 4477 4478 1
4243 4478 4479 1
4244 4479 4480 1
4245 4480 4481 1
4246 4481 4482 1
4247 4482 4483 1
4248 4483 4484 1
4249 4485 4486 1
4250 4486 4487 1
4251 4487 4488 1
4252 4488 4489 1
4253 4489 4490 1
4254 4490 4491 1
4255 4491 4492 1
4256 4492 4493 1
4257 4493 4494 1
4258 4494 4495 1
4259 4495 4496 1
4260 4496 4497 1
4261 4497 4498 1
4262 4498 4499 1
4263 4499 4500 1
4264 4500 4501 1
4265 4501 4502 1
4266 4502 4503 1
4267 4504 4505 1
4268 4505 4506 1
4269 4506 4507 1
4270 4507 4508 1
4271 4508 4509 1
4272 4509 4510 1
4273 4510 4511 1
4274 4511 4512 1
4275 4512 4513 1
4276 4513 4514 1
4277 4514 4515 1
4278 4515 4516 1
4279 4516 4517 1
4280 4517 4518 1
4281 4518 4519 1
4282 4519 4520 1
4283 4520 4521 1
4284 4521 4522 1
4285 4523 4524 1
4286 4524 4525 1
4287 4525 4526 1
4288 4526 4527 1
4289 4527 4528 1
4290 4528 4529 1
4291 4529 4530 1
4292 4530 4531 1
4293 4531 4532 1
4294 4532 4533 1
4295 4533 4534 1
4296 4534 4535 1
4297 4535 4536 1
4298 4536 4537 1
4299 4537 4538 1
4300 4538 4539 1
4301 4539 4540 1
4302 4540 4541 1
4303 4542 4543 1
4304 4543 4544 1
4305 4544 4545 1
4306 4545 4546 1
4307 4546 4547 1
4308 4547 4548 1
4309 4548 4549 1
4310 4549 4550 1
4311 4550 4551 1
4312 4551 4552 1
4313 4552 4553 1
4314 4553 4554 1
4315 4554 4555 1
4316 4555 4556 1
4317 4556 4557 1
4318 4557 4558 1
4319 4558 4559 1
4320 4559 4560 1
4321 4561 4562 1
4322 4562 4563 1
4323 4563 4564 1
4324 4564 4565 1
4325 4565 4566 1
4326 4566 4567 1
4327 4567 4568 1
4328 4568 4569 1
4329 4569 4570 1
4330 4570 4571 1
4331 4571 4572 1
4332 4572 4573 1
4333 4573 4574 1
4334 4574 4575 1
4335 4575 4576 1
4336 4576 4577 1
4337 4577 4578 1
4338 4578 4579 1
4339 4580 4581 1
4340 4581 4582 1
4341 4582 4583 1
4342 4583 4584 1
4343 4584 4585 1
4344 4585 4586 1
4345 4586 4587 1
4346 4587 4588 1
4347 4588 4589 1
4348 4589 4590 1
4349 4590 4591 1
4350 4591 4592 1
4351 4592 4593 1
4352 4593 4594 1
4353 4594 4595 1
4354 4595 4596 1
4355 4596 4597 1
4356 4597 4598 1
4357 4599 4600 1
4358 4600 4601 1
4359 4601 4602 1
4360 4602 4603 1
4361 4603 4604 1
4362 4604 4605 1
4363 4605 4606 1
4364 4606 4607 1
4365 4607 4608 1
4366 4608 4609 1
4367 4609 4610 1
4368 4610 4611 1
4369 4611 4612 1
4370 4612 4613 1
4371 4613 4614 1
4372 4614 4615 1
4373 4615 4616 1
4374 4616 4617 1
4375 4618 4619 1
4376 4619 4620 1
4377 4620 4621 1
4378 4621 4622 1
4379 4622 4623 1
4380 4623 4624 1
4381 4624 4625 1
4382 4625 4626 1
4383 4626 4627 1
4384 4627 4628 1
4385 4628 4629 1
4386 4629 4630 1
4387 4630 4631 1
4388 4631 4632 1
4389 4632 4633 1
4390 4633 4634 1
4391 4634 4635 1
4392 4635 4636 1
4393 4637 4638 1
4394 4638 4639 1
4395 4639 4640 1
4396 4640 4641 1
4397 4641 4642 1
4398 4642 4643 1
4399 4643 4644 1
4400 4644 4645 1
4401 4645 4646 1
4402 4646 4647 1
4403 4647 4648 1
4404 4648 4649 1
4405 4649 4650 1
4406 4650 4651 1
4407 4651 4652 1
4408 4652 4653 1
4409 4653 4654 1
4410 4654 4655 1
4411 4656 4657 1
4412 4657 4658 1
4413 4658 4659 1
4414 4659 4660 1
4415 4660 4661 1
4416 4661 4662 1
4417 4662 4663 1
4418 4663 4664 1
4419 4664 4665 1
4420 4665 4666 1
4421 4666 4667 1
4422 4667 4668 1
4423 4668 4669 1
4424 4669 4670 1
4425 4670 4671 1
4426 4671 4672 1
4427 4672 4673 1
4428 4673 4674 1
4429 4675 4676 1
4430 4676 4677 1
4431 4677 4678 1
4432 4678 4679 1
4433 4679 4680 1
4434 4680 4681 1
4435 4681 4682 1
4436 4682 4683 1
4437 4683 4684 1
4438 4684 4685 1
4439 4685 4686 1
4440 4686 4687 1
4441 4687 4688 1
4442 4688 4689 1
4443 4689 4690 1
4444 4690 4691 1
4445 4691 4692 1
4446 4692 4693 1
4447 4694 4695 1
4448 4695 4696 1
4449 4696 4697 1
4450 4697 4698 1
4451 4698 4699 1
4452 4699 4700 1
4453 4700 4701 1
4454 4701 4702 1
4455 4702 4703 1
4456 4703 4704 1
4457 4704 4705 1
4458 4705 4706 1
4459 4706 4707 1
4460 4707 4708 1
4461 4708 4709 1
4462 4709 4710 1
4463 4710 4711 1
4464 4711 4712 1
4465 4713 4714 1
4466 4714 4715 1
4467 4715 4716 1
4468 4716 4717 1
4469 4717 4718 1
4470 4718 4719 1
4471 4719 4720 1
4472 4720 4721 1
4473 4721 4722 1
4474 4722 4723 1
4475 4723 4724 1
4476 4724 4725 1
4477 4725 4726 1
4478 4726 4727 1
4479 4727 4728 1
4480 4728 4729 1
4481 4729 4730 1
4482 4730 4731 1
4483 4732 4733 1
4484 4733 4734 1
4485 4734 4735 1
4486 4735 4736 1
4487 4736 4737 1
4488 4737 4738 1
4489 4738 4739 1
4490 4739 4740 1
4491 4740 4741 1
4492 4741 4742 1
4493 4742 4743 1
4494 4743 4744 1
4495 4744 4745 1
4496 4745 4746 1
4497 4746 4747 1
4498 4747 4748 1
4499 4748 4749 1
4500 4749 4750 1
4501 4751 4752 1
4502 4752 4753 1
4503 4753 4754 1
4504 4754 4755 1
4505 4755 4756 1
4506 4756 4757 1
4507 4757 4758 1
4508 4758 4759 1
4509 4759 4760 1
4510 4760 4761 1
4511 4761 4762 1
4512 4762 4763 1
4513 4763 4764 1
4514 4764 4765 1
4515 4765 4766 1
4516 4766 4767 1
4517 4767 4768 1
4518 4768 4769 1
4519 4770 4771 1
4520 4771 4772 1
4521 4772 4773 1
4522 4773 4774 1
4523 4774 4775 1
4524 4775 4776 1
4525 4776 4777 1
4526 4777 4778 1
4527 4778 4779 1
4528 4779 4780 1
4529 4780 4781 1
4530 4781 4782 1
4531 4782 4783 1
4532 4783 4784 1
4533 4784 4785 1
4534 4785 4786 1
4535 4786 4787 1
4536 4787 4788 1
4537 4789 4790 1
4538 4790 4791 1
4539 4791 4792 1
4540 4792 4793 1
4541 4793 4794 1
4542 4794 4795 1
4543 4795 4796 1
4544 4796 4797 1
4545 4797 4798 1
4546 4798 4799 1
4547 4799 4800 1
4548 4800 4801 1
4549 4801 4802 1
4550 4802 4803 1
4551 4803 4804 1
4552 4804 4805 1
4553 4805 4806 1
4554 4806 4807 1
4555 4808 4809 1
4556 4809 4810 1
4557 4810 4811 1
4558 4811 4812 1
4559 4812 4813 1
4560 4813 4814 1
4561 4814 4815 1
4562 4815 4816 1
4563 4816 4817 1
4564 4817 4818 1
4565 4818 4819 1
4566 4819 4820 1
4567 4820 4821 1
4568 4821 4822 1
4569 4822 4823 1
4570 4823 4824 1
4571 4824 4825 1
4572 4825 4826 1
4573 4827 4828 1
4574 4828 4829 1
4575 4829 4830 1
4576 4830 4831 1
4577 4831 4832 1
4578 4832 4833 1
4579 4833 4834 1
4580 4834 4835 1
4581 4835 4836 1
4582 4836 4837 1
4583 4837 4838 1
4584 4838 4839 1
4585 4839 4840 1
4586 4840 4841 1
4587 4841 4842 1
4588 4842 4843 1
4589 4843 4844 1
4590 4844 4845 1
4591 4846 4847 1
4592 4847 4848 1
4593 4848 4849 1
4594 4849 4850 1
4595 4850 4851 1
4596 4851 4852 1
4597 4852 4853 1
4598 4853 4854 1
4599 4854 4855 1
4600 4855 4856 1
4601 4856 4857 1
4602 4857 4858 1
4603 4858 4859 1
4604 4859 4860 1
4605 4860 4861 1
4606 4861 4862 1
4607 4862 4863 1
4608 4863 4864 1
4609 4865 4866 1
4610 4866 4867 1
4611 4867 4868 1
4612 4868 4869 1
4613 4869 4870 1
4614 4870 4871 1
4615 4871 4872 1
4616 4872 4873 1
4617 4873 4874 1
4618 4874 4875 1
4619 4875 4876 1
4620 4876 4877 1
4621 4877 4878 1
4622 4878 4879 1
4623 4879 4880 1
4624 4880 4881 1
4625 4881 4882 1
4626 4882 4883 1
4627 4884 4885 1
4628 4885 4886 1
4629 4886 4887 1
4630 4887 4888 1
4631 4888 4889 1
4632 4889 4890 1
4633 4890 4891 1
4634 4891 4892 1
4635 4892 4893 1
4636 4893 4894 1
4637 4894 4895 1
4638 4895 4896 1
4639 4896 4897 1
4640 4897 4898 1
4641 4898 4899 1
4642 4899 4900 1
4643 4900 4901 1
4644 4901 4902 1
4645 4903 4904 1
4646 4904 4905 1
4647 4905 4906 1
4648 4906 4907 1
4649 4907 4908 1
4650 4908 4909 1
4651 4909 4910 1
4652 4910 4911 1
4653 4911 4912 1
4654 4912 4913 1
4655 4913 4914 1
4656 4914 4915 1
4657 4915 4916 1
4658 4916 4917 1
4659 4917 4918 1
4660 4918 4919 1
4661 4919 4920 1
4662 4920 4921 1
4663 4922 4923 1
4664 4923 4924 1
4665 4924 4925 1
4666 4925 4926 1
4667 4926 4927 1
4668 4927 4928 1
4669 4928 4929 1
4670 4929 4930 1
4671 4930 4931 1
4672 4931 4932 1
4673 4932 4933 1
4674 4933 4934 1
4675 4934 4935 1
4676 4935 4936 1
4677 4936 4937 1
4678 4937 4938 1
4679 4938 4939 1
4680 4939 4940 1
4681 4941 4942 1
4682 4942 4943 1
4683 4943 4944 1
4684 4944 4945 1
4685 4945 4946 1
4686 4946 4947 1
4687 4947 4948 1
4688 4948 4949 1
4689 4949 4950 1
4690 4950 4951 1
4691 4951 4952 1
4692 4952 4953 1
4693 4953 4954 1
4694 4954 4955 1
4695 4955 4956 1
4696 4956 4957 1
4697 4957 4958 1
4698 4958 4959 1
4699 4960 4961 1
4700 4961 4962 1
4701 4962 4963 1
4702 4963 4964 1
4703 4964 4965 1
4704 4965 4966 1
4705 4966 4967 1
4706 4967 4968 1
4707 4968 4969 1
4708 4969 4970 1
4709 4970 4971 1
4710 4971 4972 1
4711 4972 4973 1
4712 4973 4974 1
4713 4974 4975 1
4714 4975 4976 1
4715 4976 4977 1
4716 4977 4978 1
4717 4979 4980 1
4718 4980 4981 1
4719 4981 4982 1
4720 4982 4983 1
4721 4983 4984 1
4722 4984 4985 1
4723 4985 4986 1
4724 4986 4987 1
4725 4987 4988 1
4726 4988 4989 1
4727 4989 4990 1
4728 4990 4991 1
4729 4991 4992 1
4730 4992 4993 1
4731 4993 4994 1
4732 4994 4995 1
4733 4995 4996 1
4734 4996 4997 1
4735 4998 4999 1
4736 4999 5000 1
4737 5000 5001 1
4738 5001 5002 1
4739 5002 5003 1
4740 5003 5004 1
4741 5004 5005 1
4742 5005 5006 1
4743 5006 5007 1
4744 5007 5008 1
4745 5008 5009 1
4746 5009 5010 1
4747 5010 5011 1
4748 5011 5012 1
4749 5012 5013 1
4750 5013 5014 1
4751 5014 5015 1
4752 5015 5016 1
4753 5017 5018 1
4754 5018 5019 1
4755 5019 5020 1
4756 5020 5021 1
4757 5021 5022 1
4758 5022 5023 1
4759 5023 5024 1
4760 5024 5025 1
4761 5025 5026 1
4762 5026 5027 1
4763 5027 5028 1
4764 5028 5029 1
4765 5029 5030 1
4766 5030 5031 1
4767 5031 5032 1
4768 5032 5033 1
4769 5033 5034 1
4770 5034 5035 1
4771 5036 5037 1
4772 5037 5038 1
4773 5038 5039 1
4774 5039 5040 1
4775 5040 5041 1
4776 5041 5042 1
4777 5042 5043 1
4778 5043 5044 1
4779 5044 5045 1
4780 5045 5046 1
4781 5046 5047 1
4782 5047 5048 1
4783 5048 5049 1
4784 5049 5050 1
4785 5050 5051 1
4786 5051 5052 1
4787 5052 5053 1
4788 5053 5054 1
4789 5055 5056 1
4790 5056 5057 1
4791 5057 5058 1
4792 5058 5059 1
4793 5059 5060 1
4794 5060 5061 1
4795 5061 5062 1
4796 5062 5063 1
4797 5063 5064 1
4798 5064 5065 1
4799 5065 5066 1
4800 5066 5067 1
4801 5067 5068 1
4802 5068 5069 1
4803 5069 5070 1
4804 5070 5071 1
4805 5071 5072 1
4806 5072 5073 1
4807 5074 5075 1
4808 5075 5076 1
4809 5076 5077 1
4810 5077 5078 1
4811 5078 5079 1
4812 5079 5080 1
4813 5080 5081 1
4814 5081 5082 1
4815 5082 5083 1
4816 5083 5084 1
4817 5084 5085 1
4818 5085 5086 1
4819 5086 5087 1
4820 5087 5088 1
4821 5088 5089 1
4822 5089 5090 1
4823 5090 5091 1
4824 5091 5092 1
4825 5093 5094 1
4826 5094 5095 1
4827 5095 5096 1
4828 5096 5097 1
4829 5097 5098 1
4830 5098 5099 1
4831 5099 5100 1
4832 5100 5101 1
4833 5101 5102 1
4834 5102 5103 1
4835 5103 5104 1
4836 5104 5105 1
4837 5105 5106 1
4838 5106 5107 1
4839 5107 5108 1
4840 5108 5109 1
4841 5109 5110 1
4842 5110 5111 1
4843 5112 5113 1
4844 5113 5114 1
4845 5114 5115 1
4846 5115 5116 1
4847 5116 5117 1
4848 5117 5118 1
4849 5118 5119 1
4850 5119 5120 1
4851 5120 5121 1
4852 5121 5122 1
4853 5122 5123 1
4854 5123 5124 1
4855 5124 5125 1
4856 5125 5126 1
4857 5126 5127 1
4858 5127 5128 1
4859 5128 5129 1
4860 5129 5130 1
4861 5131 5132 1
4862 5132 5133 1
4863 5133 5134 1
4864 5134 5135 1
4865 5135 5136 1
4866 5136 5137 1
4867 5137 5138 1
4868 5138 5139 1
4869 5139 5140 1
4870 5140 5141 1
4871 5141 5142 1
4872 5142 5143 1
4873 5143 5144 1
4874 5144 5145 1
4875 5145 5146 1
4876 5146 5147 1
4877 5147 5148 1
4878 5148 5149 1
4879 5150 5151 1
4880 5151 5152 1
4881 5152 5153 1
4882 5153 5154 1
4883 5154 5155 1
4884 5155 5156 1
4885 5156 5157 1
4886 5157 5158 1
4887 5158 5159 1
4888 5159 5160 1
4889 5160 5161 1
4890 5161 5162 1
4891 5162 5163 1
4892 5163 5164 1
4893 5164 5165 1
4894 5165 5166 1
4895 5166 5167 1
4896 5167 5168 1
4897 5169 5170 1
4898 5170 5171 1
4899 5171 5172 1
4900 5172 5173 1
4901 5173 5174 1
4902 5174 5175 1
4903 5175 5176 1
4904 5176 5177 1
4905 5177 5178 1
4906 5178 5179 1
4907 5179 5180 1
4908 5180 5181 1
4909 5181 5182 1
4910 5182 5183 1
4911 5183 5184 1
4912 5184 5185 1
4913 5185 5186 1
4914 5186 5187 1
4915 5188 5189 1
4916 5189 5190 1
4917 5190 5191 1
4918 5191 5192 1
4919 5192 5193 1
4920 5193 5194 1
4921 5194 5195 1
4922 5195 5196 1
4923 5196 5197 1
4924 5197 5198 1
4925 5198 5199 1
4926 5199 5200 1
4927 5200 5201 1
4928 5201 5202 1
4929 5202 5203 1
4930 5203 5204 1
4931 5204 5205 1
4932 5205 5206 1
4933 5207 5208 1
4934 5208 5209 1
4935 5209 5210 1
4936 5210 5211 1
4937 5211 5212 1
4938 5212 5213 1
4939 5213 5214 1
4940 5214 5215 1
4941 5215 5216 1
4942 5216 5217 1
4943 5217 5218 1
4944 5218 5219 1
4945 5219 5220 1
4946 5220 5221 1
4947 5221 5222 1
4948 5222 5223 1
4949 5223 5224 1
4950 5224 5225 1
4951 5226 5227 1
4952 5227 5228 1
4953 5228 5229 1
4954 5229 5230 1
4955 5230 5231 1
4956 5231 5232 1
4957 5232 5233 1
4958 5233 5234 1
4959 5234 5235 1
4960 5235 5236 1
4961 5236 5237 1
4962 5237 5238 1
4963 5238 5239 1
4964 5239 5240 1
4965 5240 5241 1
4966 5241 5242 1
4967 5242 5243 1
4968 5243 5244 1
4969 5245 5246 1
4970 5246 5247 1
4971 5247 5248 1
4972 5248 5249 1
4973 5249 5250 1
4974 5250 5251 1
4975 5251 5252 1
4976 5252 5253 1
4977 5253 5254 1
4978 5254 5255 1
4979 5255 5256 1
4980 5256 5257 1
4981 5257 5258 1
4982 5258 5259 1
4983 5259 5260 1
4984 5260 5261 1
4985 5261 5262 1
4986 5262 5263 1
4987 5264 5265 1
4988 5265 5266 1
4989 5266 5267 1
4990 5267 5268 1
4991 5268 5269 1
4992 5269 5270 1
4993 5270 5271 1
4994 5271 5272 1
4995 5272 5273 1
4996 5273 5274 1
4997 5274 5275 1
4998 5275 5276 1
4999 5276 5277 1
5000 5277 5278 1
5001 5278 5279 1
5002 5279 5280 1
5003 5280 5281 1
5004 5281 5282 1
5005 5283 5284 1
5006 5284 5285 1
5007 5285 5286 1
5008 5286 5287 1
5009 5287 5288 1
5010 5288 5289 1
5011 5289 5290 1
5012 5290 5291 1
5013 5291 5292 1
5014 5292 5293 1
5015 5293 5294 1
5016 5294 5295 1
5017 5295 5296 1
5018 5296 5297 1
5019 5297 5298 1
5020 5298 5299 1
5021 5299 5300 1
5022 5300 5301 1
5023 5302 5303 1
5024 5303 5304 1
5025 5304 5305 1
5026 5305 5306 1
5027 5306 5307 1
5028 5307 5308 1
5029 5308 5309 1
5030 5309 5310 1
5031 5310 5311 1
5032 5311 5312 1
5033 5312 5313 1
5034 5313 5314 1
5035 5314 5315 1
5036 5315 5316 1
5037 5316 5317 1
5038 5317 5318 1
5039 5318 5319 1
5040 5319 5320 1
5041 5321 5322 1
5042 5322 5323 1
5043 5323 5324 1
5044 5324 5325 1
5045 5325 5326 1
5046 5326 5327 1
5047 5327 5328 1
5048 5328 5329 1
5049 5329 5330 1
5050 5330 5331 1
5051 5331 5332 1
5052 5332 5333 1
5053 5333 5334 1
5054 5334 5335 1
5055 5335 5336 1
5056 5336 5337 1
5057 5337 5338 1
5058 5338 5339 1
5059 5340 5341 1
5060 5341 5342 1
5061 5342 5343 1
5062 5343 5344 1
5063 5344 5345 1
5064 5345 5346 1
5065 5346 5347 1
5066 5347 5348 1
5067 5348 5349 1
5068 5349 5350 1
5069 5350 5351 1
5070 5351 5352 1
5071 5352 5353 1
5072 5353 5354 1
5073 5354 5355 1
5074 5355 5356 1
5075 5356 5357 1
5076 5357 5358 1
5077 5359 5360 1
5078 5360 5361 1
5079 5361 5362 1
5080 5362 5363 1
5081 5363 5364 1
5082 5364 5365 1
5083 5365 5366 1
5084 5366 5367 1
5085 5367 5368 1
5086 5368 5369 1
5087 5369 5370 1
5088 5370 5371 1
5089 5371 5372 1
5090 5372 5373 1
5091 5373 5374 1
5092 5374 5375 1
5093 5375 5376 1
5094 5376 5377 1
5095 5378 5379 1
5096 5379 5380 1
5097 5380 5381 1
5098 5381 5382 1
5099 5382 5383 1
5100 5383 5384 1
5101 5384 5385 1
5102 5385 5386 1
5103 5386 5387 1
5104 5387 5388 1
5105 5388 5389 1
5106 5389 5390 1
5107 5390 5391 1
5108 5391 5392 1
5109 5392 5393 1
5110 5393 5394 1
5111 5394 5395 1
5112 5395 5396 1
5113 5397 5398 1
5114 5398 5399 1
5115 5399 5400 1
5116 5400 5401 1
5117 5401 5402 1
5118 5402 5403 1
5119 5403 5404 1
5120 5404 5405 1
5121 5405 5406 1
5122 5406 5407 1
5123 5407 5408 1
5124 5408 5409 1
5125 5409 5410 1
5126 5410 5411 1
5127 5411 5412 1
5128 5412 5413 1
5129 5413 5414 1
5130 5414 5415 1
5131 5416 5417 1
5132 5417 5418 1
5133 5418 5419 1
5134 5419 5420 1
5135 5420 5421 1
5136 5421 5422 1
5137 5422 5423 1
5138 5423 5424 1
5139 5424 5425 1
5140 5425 5426 1
5141 5426 5427 1
5142 5427 5428 1
5143 5428 5429 1
5144 5429 5430 1
5145 5430 5431 1
5146 5431 5432 1
5147 5432 5433 1
5148 5433 5434 1
5149 5435 5436 1
5150 5436 5437 1
5151 5437 5438 1
5152 5438 5439 1
5153 5439 5440 1
5154 5440 5441 1
5155 5441 5442 1
5156 5442 5443 1
5157 5443 5444 1
5158 5444 5445 1
5159 5445 5446 1
5160 5446 5447 1
5161 5447 5448 1
5162 5448 5449 1
5163 5449 5450 1
5164 5450 5451 1
5165 5451 5452 1
5166 5452 5453 1
5167 5454 5455 1
5168 5455 5456 1
5169 5456 5457 1
5170 5457 5458 1
5171 5458 5459 1
5172 5459 5460 1
5173 5460 5461 1
5174 5461 5462 1
5175 5462 5463 1
5176 5463 5464 1
5177 5464 5465 1
5178 5465 5466 1
5179 5466 5467 1
5180 5467 5468 1
5181 5468 5469 1
5182 5469 5470 1
5183 5470 5471 1
5184 5471 5472 1
5185 5473 5474 1
5186 5474 5475 1
5187 5475 5476 1
5188 5476 5477 1
5189 5477 5478 1
5190 5478 5479 1
5191 5479 5480 1
5192 5480 5481 1
5193 5481 5482 1
5194 5482 5483 1
5195 5483 5484 1
5196 5484 5485 1
5197 5485 5486 1
5198 5486 5487 1
5199 5487 5488 1
5200 5488 5489 1
5201 5489 5490 1
5202 5490 5491 1
5203 5492 5493 1
5204 5493 5494 1
5205 5494 5495 1
5206 5495 5496 1
5207 5496 5497 1
5208 5497 5498 1
5209 5498 5499 1
5210 5499 5500 1
5211 5500 5501 1
5212 5501 5502 1
5213 5502 5503 1
5214 5503 5504 1
5215 5504 5505 1
5216 5505 5506 1
5217 5506 5507 1
5218 5507 5508 1
5219 5508 5509 1
5220 5509 5510 1
5221 5511 5512 1
5222 5512 5513 1
5223 5513 5514 1
5224 5514 5515 1
5225 5515 5516 1
5226 5516 5517 1
5227 5517 5518 1
5228 5518 5519 1
5229 5519 5520 1
5230 5520 5521 1
5231 5521 5522 1
5232 5522 5523 1
5233 5523 5524 1
5234 5524 5525 1
5235 5525 5526 1
5236 5526 5527 1
5237 5527 5528 1
5238 5528 5529 1
5239 5530 5531 1
5240 5531 5532 1
5241 5532 5533 1
5242 5533 5534 1
5243 5534 5535 1
5244 5535 5536 1
5245 5536 5537 1
5246 5537 5538 1
5247 5538 5539 1
5248 5539 5540 1
5249 5540 5541 1
5250 5541 5542 1
5251 5542 5543 1
5252 5543 5544 1
5253 5544 5545 1
5254 5545 5546 1
5255 5546 5547 1
5256 5547 5548 1
5257 5549 5550 1
5258 5550 5551 1
5259 5551 5552 1
5260 5552 5553 1
5261 5553 5554 1
5262 5554 5555 1
5263 5555 5556 1
5264 5556 5557 1
5265 5557 5558 1
5266 5558 5559 1
5267 5559 5560 1
5268 5560 5561 1
5269 5561 5562 1
5270 5562 5563 1
5271 5563 5564 1
5272 5564 5565 1
5273 5565 5566 1
5274 5566 5567 1
5275 5568 5569 1
5276 5569 5570 1
5277 5570 5571 1
5278 5571 5572 1
5279 5572 5573 1
5280 5573 5574 1
5281 5574 5575 1
5282 5575 5576 1
5283 5576 5577 1
5284 5577 5578 1
5285 5578 5579 1
5286 5579 5580 1
5287 5580 5581 1
5288 5581 5582 1
5289 5582 5583 1
5290 5583 5584 1
5291 5584 5585 1
5292 5585 5586 1
5293 5587 5588 1
5294 5588 5589 1
5295 5589 5590 1
5296 5590 5591 1
5297 5591 5592 1
5298 5592 5593 1
5299 5593 5594 1
5300 5594 5595 1
5301 5595 5596 1
5302 5596 5597 1
5303 5597 5598 1
5304 5598 5599 1
5305 5599 5600 1
5306 5600 5601 1
5307 5601 5602 1
5308 5602 5603 1
5309 5603 5604 1
5310 5604 5605 1
5311 5606 5607 1
5312 5607 5608 1
5313 5608 5609 1
5314 5609 5610 1
5315 5610 5611 1
5316 5611 5612 1
5317 5612 5613 1
5318 5613 5614 1
5319 5614 5615 1
5320 5615 5616 1
5321 5616 5617 1
5322 5617 5618 1
5323 5618 5619 1
5324 5619 5620 1
5325 5620 5621 1
5326 5621 5622 1
5327 5622 5623 1
5328 5623 5624 1
5329 5625 5626 1
5330 5626 5627 1
5331 5627 5628 1
5332 5628 5629 1
5333 5629 5630 1
5334 5630 5631 1
5335 5631 5632 1
5336 5632 5633 1
5337 5633 5634 1
5338 5634 5635 1
5339 5635 5636 1
5340 5636 5637 1
5341 5637 5638 1
5342 5638 5639 1
5343 5639 5640 1
5344 5640 5641 1
5345 5641 5642 1
5346 5642 5643 1
5347 5644 5645 1
5348 5645 5646 1
5349 5646 5647 1
5350 5647 5648 1
5351 5648 5649 1
5352 5649 5650 1
5353 5650 5651 1
5354 5651 5652 1
5355 5652 5653 1
5356 5653 5654 1
5357 5654 5655 1
5358 5655 5656 1
5359 5656 5657 1
5360 5657 5658 1
5361 5658 5659 1
5362 5659 5660 1
5363 5660 5661 1
5364 5661 5662 1
5365 5663 5664 1
5366 5664 5665 1
5367 5665 5666 1
5368 5666 5667 1
5369 5667 5668 1
5370 5668 5669 1
5371 5669 5670 1
5372 5670 5671 1
5373 5671 5672 1
5374 5672 5673 1
5375 5673 5674 1
5376 5674 5675 1
5377 5675 5676 1
5378 5676 5677 1
5379 5677 5678 1
5380 5678 5679 1
5381 5679 5680 1
5382 5680 5681 1
5383 5682 5683 1
5384 5683 5684 1
5385 5684 5685 1
5386 5685 5686 1
5387 5686 5687 1
5388 5687 5688 1
5389 5688 5689 1
5390 5689 5690 1
5391 5690 5691 1
5392 5691 5692 1
5393 5692 5693 1
5394 5693 5694 1
5395 5694 5695 1
5396 5695 5696 1
5397 5696 5697 1
5398 5697 5698 1
5399 5698 5699 1
5400 5699 5700 1
5401 5701 5702 1
5402 5702 5703 1
5403 5703 5704 1
5404 5704 5705 1
5405 5705 5706 1
5406 5706 5707 1
5407 5707 5708 1
5408 5708 5709 1
5409 5709 5710 1
5410 5710 5711 1
5411 5711 5712 1
5412 5712 5713 1
5413 5713 5714 1
5414 5714 5715 1
5415 5715 5716 1
5416 5716 5717 1
5417 5717 5718 1
5418 5718 5719 1
5419 5720 5721 1
5420 5721 5722 1
5421 5722 5723 1
5422 5723 5724 1
5423 5724 5725 1
5424 5725 5726 1
5425 5726 5727 1
5426 5727 5728 1
5427 5728 5729 1
5428 5729 5730 1
5429 5730 5731 1
5430 5731 5732 1
5431 5732 5733 1
5432 5733 5734 1
5433 5734 5735 1
5434 5735 5736 1
5435 5736 5737 1
5436 5737 5738 1
5437 5739 5740 1
5438 5740 5741 1
5439 5741 5742 1
5440 5742 5743 1
5441 5743 5744 1
5442 5744 5745 1
5443 5745 5746 1
5444 5746 5747 1
5445 5747 5748 1
5446 5748 5749 1
5447 5749 5750 1
5448 5750 5751 1
5449 5751 5752 1
5450 5752 5753 1
5451 5753 5754 1
5452 5754 5755 1
5453 5755 5756 1
5454 5756 5757 1
5455 5758 5759 1
5456 5759 5760 1
5457 5760 5761 1
5458 5761 5762 1
5459 5762 5763 1
5460 5763 5764 1
5461 5764 5765 1
5462 5765 5766 1
5463 5766 5767 1
5464 5767 5768 1
5465 5768 5769 1
5466 5769 5770 1
5467 5770 5771 1
5468 5771 5772 1
5469 5772 5773 1
5470 5773 5774 1
5471 5774 5775 1
5472 5775 5776 1
5473 5777 5778 1
5474 5778 5779 1
5475 5779 5780 1
5476 5780 5781 1
5477 5781 5782 1
5478 5782 5783 1
5479 5783 5784 1
5480 5784 5785 1
5481 5785 5786 1
5482 5786 5787 1
5483 5787 5788 1
5484 5788 5789 1
5485 5789 5790 1
5486 5790 5791 1
5487 5791 5792 1
5488 5792 5793 1
5489 5793 5794 1
5490 5794 5795 1
5491 5796 5797 1
5492 5797 5798 1
5493 5798 5799 1
5494 5799 5800 1
5495 5800 5801 1
5496 5801 5802 1
5497 5802 5803 1
5498 5803 5804 1
5499 5804 5805 1
5500 5805 5806 1
5501 5806 5807 1
5502 5807 5808 1
5503 5808 5809 1
5504 5809 5810 1
5505 5810 5811 1
5506 5811 5812 1
5507 5812 5813 1
5508 5813 5814 1
5509 5815 5816 1
5510 5816 5817 1
5511 5817 5818 1
5512 5818 5819 1
5513 5819 5820 1
5514 5820 5821 1
5515 5821 5822 1
5516 5822 5823 1
5517 5823 5824 1
5518 5824 5825 1
5519 5825 5826 1
5520 5826 5827 1
5521 5827 5828 1
5522 5828 5829 1
5523 5829 5830 1
5524 5830 5831 1
5525 5831 5832 1
5526 5832 5833 1
5527 5834 5835 1
5528 5835 5836 1
5529 5836 5837 1
5530 5837 5838 1
5531 5838 5839 1
5532 5839 5840 1
5533 5840 5841 1
5534 5841 5842 1
5535 5842 5843 1
5536 5843 5844 1
5537 5844 5845 1
5538 5845 5846 1
5539 5846 5847 1
5540 5847 5848 1
5541 5848 5849 1
5542 5849 5850 1
5543 5850 5851 1
5544 5851 5852 1
5545 5853 5854 1
5546 5854 5855 1
5547 5855 5856 1
5548 5856 5857 1
5549 5857 5858 1
5550 5858 5859 1
5551 5859 5860 1
5552 5860 5861 1
5553 5861 5862 1
5554 5862 5863 1
5555 5863 5864 1
5556 5864 5865 1
5557 5865 5866 1
5558 5866 5867 1
5559 5867 5868 1
5560 5868 5869 1
5561 5869 5870 1
5562 5870 5871 1
5563 5872 5873 1
5564 5873 5874 1
5565 5874 5875 1
5566 5875 5876 1
5567 5876 5877 1
5568 5877 5878 1
5569 5878 5879 1
5570 5879 5880 1
5571 5880 5881 1
5572 5881 5882 1
5573 5882 5883 1
5574 5883 5884 1
5575 5884 5885 1
5576 5885 5886 1
5577 5886 5887 1
5578 5887 5888 1
5579 5888 5889 1
5580 5889 5890 1
5581 5891 5892 1
5582 5892 5893 1
5583 5893 5894 1
5584 5894 5895 1
5585 5895 5896 1
5586 5896 5897 1
5587 5897 5898 1
5588 5898 5899 1
5589 5899 5900 1
5590 5900 5901 1
5591 5901 5902 1
5592 5902 5903 1
5593 5903 5904 1
5594 5904 5905 1
5595 5905 5906 1
5596 5906 5907 1
5597 5907 5908 1
5598 5908 5909 1
5599 5910 5911 1
5600 5911 5912 1
5601 5912 5913 1
5602 5913 5914 1
5603 5914 5915 1
5604 5915 5916 1
5605 5916 5917 1
5606 5917 5918 1
5607 5918 5919 1
5608 5919 5920 1
5609 5920 5921 1
5610 5921 5922 1
5611 5922 5923 1
5612 5923 5924 1
5613 5924 5925 1
5614 5925 5926 1
5615 5926 5927 1
5616 5927 5928 1
5617 5929 5930 1
5618 5930 5931 1
5619 5931 5932 1
5620 5932 5933 1
5621 5933 5934 1
5622 5934 5935 1
5623 5935 5936 1
5624 5936 5937 1
5625 5937 5938 1
5626 5938 5939 1
5627 5939 5940 1
5628 5940 5941 1
5629 5941 5942 1
5630 5942 5943 1
5631 5943 5944 1
5632 5944 5945 1
5633 5945 5946 1
5634 5946 5947 1
5635 5948 5949 1
5636 5949 5950 1
5637 5950 5951 1
5638 5951 5952 1
5639 5952 5953 1
5640 5953 5954 1
5641 5954 5955 1
5642 5955 5956 1
5643 5956 5957 1
5644 5957 5958 1
5645 5958 5959 1
5646 5959 5960 1
5647 5960 5961 1
5648 5961 5962 1
5649 5962 5963 1
5650 5963 5964 1
5651 5964 5965 1
5652 5965 5966 1
5653 5967 5968 1
5654 5968 5969 1
5655 5969 5970 1
5656 5970 5971 1
5657 5971 5972 1
5658 5972 5973 1
5659 5973 5974 1
5660 5974 5975 1
5661 5975 5976 1
5662 5976 5977 1
5663 5977 5978 1
5664 5978 5979 1
5665 5979 5980 1
5666 5980 5981 1
5667 5981 5982 1
5668 5982 5983 1
5669 5983 5984 1
5670 5984 5985 1
5671 5986 5987 1
5672 5987 5988 1
5673 5988 5989 1
5674 5989 5990 1
5675 5990 5991 1
5676 5991 5992 1
5677 5992 5993 1
5678 5993 5994 1
5679 5994 5995 1
5680 5995 5996 1
5681 5996 5997 1
5682 5997 5998 1
5683 5998 5999 1
5684 5999 6000 1
5685 6000 6001 1
5686 6001 6002 1
5687 6002 6003 1
5688 6003 6004 1
5689 6005 6006 1
5690 6006 6007 1
5691 6007 6008 1
5692 6008 6009 1
5693 6009 6010 1
5694 6010 6011 1
5695 6011 6012 1
5696 6012 6013 1
5697 6013 6014 1
5698 6014 6015 1
5699 6015 6016 1
5700 6016 6017 1
5701 6017 6018 1
5702 6018 6019 1
5703 6019 6020 1
5704 6020 6021 1
5705 6021 6022 1
5706 6022 6023 1
5707 6024 6025 1
5708 6025 6026 1
5709 6026 6027 1
5710 6027 6028 1
5711 6028 6029 1
5712 6029 6030 1
5713 6030 6031 1
5714 6031 6032 1
5715 6032 6033 1
5716 6033 6034 1
5717 6034 6035 1
5718 6035 6036 1
5719 6036 6037 1
5720 6037 6038 1
5721 6038 6039 1
5722 6039 6040 1
5723 6040 6041 1
5724 6041 6042 1
5725 6043 6044 1
5726 6044 6045 1
5727 6045 6046 1
5728 6046 6047 1
5729 6047 6048 1
5730 6048 6049 1
5731 6049 6050 1
5732 6050 6051 1
5733 6051 6052 1
5734 6052 6053 1
5735 6053 6054 1
5736 6054 6055 1
5737 6055 6056 1
5738 6056 6057 1
5739 6057 6058 1
5740 6058 6059 1
5741 6059 6060 1
5742 6060 6061 1
5743 6062 6063 1
5744 6063 6064 1
5745 6064 6065 1
5746 6065 6066 1
5747 6066 6067 1
5748 6067 6068 1
5749 6068 6069 1
5750 6069 6070 1
5751 6070 6071 1
5752 6071 6072 1
5753 6072 6073 1
5754 6073 6074 1
5755 6074 6075 1
5756 6075 6076 1
5757 6076 6077 1
5758 6077 6078 1
5759 6078 6079 1
5760 6079 6080 1
5761 6081 6082 1
5762 6082 6083 1
5763 6083 6084 1
5764 6084 6085 1
5765 6085 6086 1
5766 6086 6087 1
5767 6087 6088 1
5768 6088 6089 1
5769 6089 6090 1
5770 6090 6091 1
5771 6091 6092 1
5772 6092 6093 1
5773 6093 6094 1
5774 6094 6095 1
5775 6095 6096 1
5776 6096 6097 1
5777 6097 6098 1
5778 6098 6099 1
5779 6100 6101 1
5780 6101 6102 1
5781 6102 6103 1
5782 6103 6104 1
5783 6104 6105 1
5784 6105 6106 1
5785 6106 6107 1
5786 6107 6108 1
5787 6108 6109 1
5788 6109 6110 1
5789 6110 6111 1
5790 6111 6112 1
5791 6112 6113 1
5792 6113 6114 1
5793 6114 6115 1
5794 6115 6116 1
5795 6116 6117 1
5796 6117 6118 1
5797 6119 6120 1
5798 6120 6121 1
5799 6121 6122 1
5800 6122 6123 1
5801 6123 6124 1
5802 6124 6125 1
5803 6125 6126 1
5804 6126 6127 1
5805 6127 6128 1
5806 6128 6129 1
5807 6129 6130 1
5808 6130 6131 1
5809 6131 6132 1
5810 6132 6133 1
5811 6133 6134 1
5812 6134 6135 1
5813 6135 6136 1
5814 6136 6137 1
5815 6138 6139 1
5816 6139 6140 1
5817 6140 6141 1
5818 6141 6142 1
5819 6142 6143 1
5820 6143 6144 1
5821 6144 6145 1
5822 6145 6146 1
5823 6146 6147 1
5824 6147 6148 1
5825 6148 6149 1
5826 6149 6150 1
5827 6150 6151 1
5828 6151 6152 1
5829 6152 6153 1
5830 6153 6154 1
5831 6154 6155 1
5832 6155 6156 1
5833 6157 6158 1
5834 6158 6159 1
5835 6159 6160 1
5836 6160 6161 1
5837 6161 6162 1
5838 6162 6163 1
5839 6163 6164 1
5840 6164 6165 1
5841 6165 6166 1
5842 6166 6167 1
5843 6167 6168 1
5844 6168 6169 1
5845 6169 6170 1
5846 6170 6171 1
5847 6171 6172 1
5848 6172 6173 1
5849 6173 6174 1
5850 6174 6175 1
5851 6176 6177 1
5852 6177 6178 1
5853 6178 6179 1
5854 6179 6180 1
5855 6180 6181 1
5856 6181 6182 1
5857 6182 6183 1
5858 6183 6184 1
5859 6184 6185 1
5860 6185 6186 1
5861 6186 6187 1
5862 6187 6188 1
5863 6188 6189 1
5864 6189 6190 1
5865 6190 6191 1
5866 6191 6192 1
5867 6192 6193 1
5868 6193 6194 1
5869 6195 6196 1
5870 6196 6197 1
5871 6197 6198 1
5872 6198 6199 1
5873 6199 6200 1
5874 6200 6201 1
5875 6201 6202 1
5876 6202 6203 1
5877 6203 6204 1
5878 6204 6205 1
5879 6205 6206 1
5880 6206 6207 1
5881 6207 6208 1
5882 6208 6209 1
5883 6209 6210 1
5884 6210 6211 1
5885 6211 6212 1
5886 6212 6213 1
5887 6214 6215 1
5888 6215 6216 1
5889 6216 6217 1
5890 6217 6218 1
5891 6218 6219 1
5892 6219 6220 1
5893 6220 6221 1
5894 6221 6222 1
5895 6222 6223 1
5896 6223 6224 1
5897 6224 6225 1
5898 6225 6226 1
5899 6226 6227 1
5900 6227 6228 1
5901 6228 6229 1
5902 6229 6230 1
5903 6230 6231 1
5904 6231 6232 1
5905 6233 6234 1
5906 6234 6235 1
5907 6235 6236 1
5908 6236 6237 1
5909 6237 6238 1
5910 6238 6239 1
5911 6239 6240 1
5912 6240 6241 1
5913 6241 6242 1
5914 6242 6243 1
5915 6243 6244 1
5916 6244 6245 1
5917 6245 6246 1
5918 6246 6247 1
5919 6247 6248 1
5920 6248 6249 1
5921 6249 6250 1
5922 6250 6251 1
5923 6252 6253 1
5924 6253 6254 1
5925 6254 6255 1
5926 6255 6256 1
5927 6256 6257 1
5928 6257 6258 1
5929 6258 6259 1
5930 6259 6260 1
5931 6260 6261 1
5932 6261 6262 1
5933 6262 6263 1
5934 6263 6264 1
5935 6264 6265 1
5936 6265 6266 1
5937 6266 6267 1
5938 6267 6268 1
5939 6268 6269 1
5940 6269 6270 1
5941 6271 6272 1
5942 6272 6273 1
5943 6273 6274 1
5944 6274 6275 1
5945 6275 6276 1
5946 6276 6277 1
5947 6277 6278 1
5948 6278 6279 1
5949 6279 6280 1
5950 6280 6281 1
5951 6281 6282 1
5952 6282 6283 1
5953 6283 6284 1
5954 6284 6285 1
5955 6285 6286 1
5956 6286 6287 1
5957 6287 6288 1
5958 6288 6289 1
5959 6290 6291 1
5960 6291 6292 1
5961 6292 6293 1
5962 6293 6294 1
5963 6294 6295 1
5964 6295 6296 1
5965 6296 6297 1
5966 6297 6298 1
5967 6298 6299 1
5968 6299 6300 1
5969 6300 6301 1
5970 6301 6302 1
5971 6302 6303 1
5972 6303 6304 1
5973 6304 6305 1
5974 6305 6306 1
5975 6306 6307 1
5976 6307 6308 1
5977 6309 6310 1
5978 6310 6311 1
5979 6311 6312 1
5980 6312 6313 1
5981 6313 6314 1
5982 6314 6315 1
5983 6315 6316 1
5984 6316 6317 1
5985 6317 6318 1
5986 6318 6319 1
5987 6319 6320 1
5988 6320 6321 1
5989 6321 6322 1
5990 6322 6323 1
5991 6323 6324 1
5992 6324 6325 1
5993 6325 6326 1
5994 6326 6327 1
5995 6328 6329 1
5996 6329 6330 1
5997 6330 6331 1
5998 6331 6332 1
5999 6332 6333 1
6000 6333 6334 1
6001 6334 6335 1
6002 6335 6336 1
6003 6336 6337 1
6004 6337 6338 1
6005 6338 6339 1
6006 6339 6340 1
6007 6340 6341 1
6008 6341 6342 1
6009 6342 6343 1
6010 6343 6344 1
6011 6344 6345 1
6012 6345 6346 1
6013 6347 6348 1
6014 6348 6349 1
6015 6349 6350 1
6016 6350 6351 1
6017 6351 6352 1
6018 6352 6353 1
6019 6353 6354 1
6020 6354 6355 1
6021 6355 6356 1
6022 6356 6357 1
6023 6357 6358 1
6024 6358 6359 1
6025 6359 6360 1
6026 6360 6361 1
6027 6361 6362 1
6028 6362 6363 1
6029 6363 6364 1
6030 6364 6365 1
6031 6366 6367 1
6032 6367 6368 1
6033 6368 6369 1
6034 6369 6370 1
6035 6370 6371 1
6036 6371 6372 1
6037 6372 6373 1
6038 6373 6374 1
6039 6374 6375 1
6040 6375 6376 1
6041 6376 6377 1
6042 6377 6378 1
6043 6378 6379 1
6044 6379 6380 1
6045 6380 6381 1
6046 6381 6382 1
6047 6382 6383 1
6048 6383 6384 1
6049 6385 6386 1
6050 6386 6387 1
6051 6387 6388 1
6052 6388 6389 1
6053 6389 6390 1
6054 6390 6391 1
6055 6391 6392 1
6056 6392 6393 1
6057 6393 6394 1
6058 6394 6395 1
6059 6395 6396 1
6060 6396 6397 1
6061 6397 6398 1
6062 6398 6399 1
6063 6399 6400 1
6064 6400 6401 1
6065 6401 6402 1
6066 6402 6403 1
6067 6404 6405 1
6068 6405 6406 1
6069 6406 6407 1
6070 6407 6408 1
6071 6408 6409 1
6072 6409 6410 1
6073 6410 6411 1
6074 6411 6412 1
6075 6412 6413 1
6076 6413 6414 1
6077 6414 6415 1
6078 6415 6416 1
6079 6416 6417 1
6080 6417 6418 1
6081 6418 6419 1
6082 6419 6420 1
6083 6420 6421 1
6084 6421 6422 1
6085 6423 6424 1
6086 6424 6425 1
6087 6425 6426 1
6088 6426 6427 1
6089 6427 6428 1
6090 6428 6429 1
6091 6429 6430 1
6092 6430 6431 1
6093 6431 6432 1
6094 6432 6433 1
6095 6433 6434 1
6096 6434 6435 1
6097 6435 6436 1
6098 6436 6437 1
6099 6437 6438 1
6100 6438 6439 1
6101 6439 6440 1
6102 6440 6441 1
6103 6442 6443 1
6104 6443 6444 1
6105 6444 6445 1
6106 6445 6446 1
6107 6446 6447 1
6108 6447 6448 1
6109 6448 6449 1
6110 6449 6450 1
6111 6450 6451 1
6112 6451 6452 1
6113 6452 6453 1
6114 6453 6454 1
6115 6454 6455 1
6116 6455 6456 1
6117 6456 6457 1
6118 6457 6458 1
6119 6458 6459 1
6120 6459 6460 1
6121 6461 6462 1
6122 6462 6463 1
6123 6463 6464 1
6124 6464 6465 1
6125 6465 6466 1
6126 6466 6467 1
6127 6467 6468 1
6128 6468 6469 1
6129 6469 6470 1
6130 6470 6471 1
6131 6471 6472 1
6132 6472 6473 1
6133 6473 6474 1
6134 6474 6475 1
6135 6475 6476 1
6136 6476 6477 1
6137 6477 6478 1
6138 6478 6479 1
6139 6480 6481 1
6140 6481 6482 1
6141 6482 6483 1
6142 6483 6484 1
6143 6484 6485 1
6144 6485 6486 1
6145 6486 6487 1
6146 6487 6488 1
6147 6488 6489 1
6148 6489 6490 1
6149 6490 6491 1
6150 6491 6492 1
6151 6492 6493 1
6152 6493 6494 1
6153 6494 6495 1
6154 6495 6496 1
6155 6496 6497 1
6156 6497 6498 1
6157 6499 6500 1
6158 6500 6501 1
6159 6501 6502 1
6160 6502 6503 1
6161 6503 6504 1
6162 6504 6505 1
6163 6505 6506 1
6164 6506 6507 1
6165 6507 6508 1
6166 6508 6509 1
6167 6509 6510 1
6168 6510 6511 1
6169 6511 6512 1
6170 6512 6513 1
6171 6513 6514 1
6172 6514 6515 1
6173 6515 6516 1
6174 6516 6517 1
6175 6518 6519 1
6176 6519 6520 1
6177 6520 6521 1
6178 6521 6522 1
6179 6522 6523 1
6180 6523 6524 1
6181 6524 6525 1
6182 6525 6526 1
6183 6526 6527 1
6184 6527 6528 1
6185 6528 6529 1
6186 6529 6530 1
6187 6530 6531 1
6188 6531 6532 1
6189 6532 6533 1
6190 6533 6534 1
6191 6534 6535 1
6192 6535 6536 1
6193 6537 6538 1
6194 6538 6539 1
6195 6539 6540 1
6196 6540 6541 1
6197 6541 6542 1
6198 6542 6543 1
6199 6543 6544 1
6200 6544 6545 1
6201 6545 6546 1
6202 6546 6547 1
6203 6547 6548 1
6204 6548 6549 1
6205 6549 6550 1
6206 6550 6551 1
6207 6551 6552 1
6208 6552 6553 1
6209 6553 6554 1
6210 6554 6555 1
6211 6556 6557 1
6212 6557 6558 1
6213 6558 6559 1
6214 6559 6560 1
6215 6560 6561 1
6216 6561 6562 1
6217 6562 6563 1
6218 6563 6564 1
6219 6564 6565 1
6220 6565 6566 1
6221 6566 6567 1
6222 6567 6568 1
6223 6568 6569 1
6224 6569 6570 1
6225 6570 6571 1
6226 6571 6572 1
6227 6572 6573 1
6228 6573 6574 1
6229 6575 6576 1
6230 6576 6577 1
6231 6577 6578 1
6232 6578 6579 1
6233 6579 6580 1
6234 6580 6581 1
6235 6581 6582 1
6236 6582 6583 1
6237 6583 6584 1
6238 6584 6585 1
6239 6585 6586 1
6240 6586 6587 1
6241 6587 6588 1
6242 6588 6589 1
6243 6589 6590 1
6244 6590 6591 1
6245 6591 6592 1
6246 6592 6593 1
6247 6594 6595 1
6248 6595 6596 1
6249 6596 6597 1
6250 6597 6598 1
6251 6598 6599 1
6252 6599 6600 1
6253 6600 6601 1
6254 6601 6602 1
6255 6602 6603 1
6256 6603 6604 1
6257 6604 6605 1
6258 6605 6606 1
6259 6606 6607 1
6260 6607 6608 1
6261 6608 6609 1
6262 6609 6610 1
6263 6610 6611 1
6264 6611 6612 1
6265 6613 6614 1
6266 6614 6615 1
6267 6615 6616 1
6268 6616 6617 1
6269 6617 6618 1
6270 6618 6619 1
6271 6619 6620 1
6272 6620 6621 1
6273 6621 6622 1
6274 6622 6623 1
6275 6623 6624 1
6276 6624 6625 1
6277 6625 6626 1
6278 6626 6627 1
6279 6627 6628 1
6280 6628 6629 1
6281 6629 6630 1
6282 6630 6631 1
6283 6632 6633 1
6284 6633 6634 1
6285 6634 6635 1
6286 6635 6636 1
6287 6636 6637 1
6288 6637 6638 1
6289 6638 6639 1
6290 6639 6640 1
6291 6640 6641 1
6292 6641 6642 1
6293 6642 6643 1
6294 6643 6644 1
6295 6644 6645 1
6296 6645 6646 1
6297 6646 6647 1
6298 6647 6648 1
6299 6648 6649 1
6300 6649 6650 1
6301 6651 6652 1
6302 6652 6653 1
6303 6653 6654 1
6304 6654 6655 1
6305 6655 6656 1
6306 6656 6657 1
6307 6657 6658 1
6308 6658 6659 1
6309 6659 6660 1
6310 6660 6661 1
6311 6661 6662 1
6312 6662 6663 1
6313 6663 6664 1
6314 6664 6665 1
6315 6665 6666 1
6316 6666 6667 1
6317 6667 6668 1
6318 6668 6669 1
6319 6670 6671 1
6320 6671 6672 1
6321 6672 6673 1
6322 6673 6674 1
6323 6674 6675 1
6324 6675 6676 1
6325 6676 6677 1
6326 6677 6678 1
6327 6678 6679 1
6328 6679 6680 1
6329 6680 6681 1
6330 6681 6682 1
6331 6682 6683 1
6332 6683 6684 1
6333 6684 6685 1
6334 6685 6686 1
6335 6686 6687 1
6336 6687 6688 1
6337 6689 6690 1
6338 6690 6691 1
6339 6691 6692 1
6340 6692 6693 1
6341 6693 6694 1
6342 6694 6695 1
6343 6695 6696 1
6344 6696 6697 1
6345 6697 6698 1
6346 6698 6699 1
6347 6699 6700 1
6348 6700 6701 1
6349 6701 6702 1
6350 6702 6703 1
6351 6703 6704 1
6352 6704 6705 1
6353 6705 6706 1
6354 6706 6707 1
6355 6708 6709 1
6356 6709 6710 1
6357 6710 6711 1
6358 6711 6712 1
6359 6712 6713 1
6360 6713 6714 1
6361 6714 6715 1
6362 6715 6716 1
6363 6716 6717 1
6364 6717 6718 1
6365 6718 6719 1
6366 6719 6720 1
6367 6720 6721 1
6368 6721 6722 1
6369 6722 6723 1
6370 6723 6724 1
6371 6724 6725 1
6372 6725 6726 1
6373 6727 6728 1
6374 6728 6729 1
6375 6729 6730 1
6376 6730 6731 1
6377 6731 6732 1
6378 6732 6733 1
6379 6733 6734 1
6380 6734 6735 1
6381 6735 6736 1
6382 6736 6737 1
6383 6737 6738 1
6384 6738 6739 1
6385 6739 6740 1
6386 6740 6741 1
6387 6741 6742 1
6388 6742 6743 1
6389 6743 6744 1
6390 6744 6745 1
6391 6746 6747 1
6392 6747 6748 1
6393 6748 6749 1
6394 6749 6750 1
6395 6750 6751 1
6396 6751 6752 1
6397 6752 6753 1
6398 6753 6754 1
6399 6754 6755 1
6400 6755 6756 1
6401 6756 6757 1
6402 6757 6758 1
6403 6758 6759 1
6404 6759 6760 1
6405 6760 6761 1
6406 6761 6762 1
6407 6762 6763 1
6408 6763 6764 1
6409 6765 6766 1
6410 6766 6767 1
6411 6767 6768 1
6412 6768 6769 1
6413 6769 6770 1
6414 6770 6771 1
6415 6771 6772 1
6416 6772 6773 1
6417 6773 6774 1
6418 6774 6775 1
6419 6775 6776 1
6420 6776 6777 1
6421 6777 6778 1
6422 6778 6779 1
6423 6779 6780 1
6424 6780 6781 1
6425 6781 6782 1
6426 6782 6783 1
6427 6784 6785 1
6428 6785 6786 1
6429 6786 6787 1
6430 6787 6788 1
6431 6788 6789 1
6432 6789 6790 1
6433 6790 6791 1
6434 6791 6792 1
6435 6792 6793 1
6436 6793 6794 1
6437 6794 6795 1
6438 6795 6796 1
6439 6796 6797 1
6440 6797 6798 1
6441 6798 6799 1
6442 6799 6800 1
6443 6800 6801 1
6444 6801 6802 1
6445 6803 6804 1
6446 6804 6805 1
6447 6805 6806 1
6448 6806 6807 1
6449 6807 6808 1
6450 6808 6809 1
6451 6809 6810 1
6452 6810 6811 1
6453 6811 6812 1
6454 6812 6813 1
6455 6813 6814 1
6456 6814 6815 1
6457 6815 6816 1
6458 6816 6817 1
6459 6817 6818 1
6460 6818 6819 1
6461 6819 6820 1
6462 6820 6821 1
6463 6822 6823 1
6464 6823 6824 1
6465 6824 6825 1
6466 6825 6826 1
6467 6826 6827 1
6468 6827 6828 1
6469 6828 6829 1
6470 6829 6830 1
6471 6830 6831 1
6472 6831 6832 1
6473 6832 6833 1
6474 6833 6834 1
6475 6834 6835 1
6476 6835 6836 1
6477 6836 6837 1
6478 6837 6838 1
6479 6838 6839 1
6480 6839 6840 1
6481 6841 6842 1
6482 6842 6843 1
6483 6843 6844 1
6484 6844 6845 1
6485 6845 6846 1
6486 6846 6847 1
6487 6847 6848 1
6488 6848 6849 1
6489 6849 6850 1
6490 6850 6851 1
6491 6851 6852 1
6492 6852 6853 1
6493 6853 6854 1
6494 6854 6855 1
6495 6855 6856 1
6496 6856 6857 1
6497 6857 6858 1
6498 6858 6859 1
6499 6860 6861 1
6500 6861 6862 1
6501 6862 6863 1
6502 6863 6864 1
6503 6864 6865 1
6504 6865 6866 1
6505 6866 6867 1
6506 6867 6868 1
6507 6868 6869 1
6508 6869 6870 1
6509 6870 6871 1
6510 6871 6872 1
6511 6872 6873 1
6512 6873 6874 1
6513 6874 6875 1
6514 6875 6876 1
6515 6876 6877 1
6516 6877 6878 1
6517 6879 6880 1
6518 6880 6881 1
6519 6881 6882 1
6520 6882 6883 1
6521 6883 6884 1
6522 6884 6885 1
6523 6885 6886 1
6524 6886 6887 1
6525 6887 6888 1
6526 6888 6889 1
6527 6889 6890 1
6528 6890 6891 1
6529 6891 6892 1
6530 6892 6893 1
6531 6893 6894 1
6532 6894 6895 1
6533 6895 6896 1
6534 6896 6897 1
6535 6898 6899 1
6536 6899 6900 1
6537 6900 6901 1
6538 6901 6902 1
6539 6902 6903 1
6540 6903 6904 1
6541 6904 6905 1
6542 6905 6906 1
6543 6906 6907 1
6544 6907 6908 1
6545 6908 6909 1
6546 6909 6910 1
6547 6910 6911 1
6548 6911 6912 1
6549 6912 6913 1
6550 6913 6914 1
6551 6914 6915 1
6552 6915 6916 1
6553 6917 6918 1
6554 6918 6919 1
6555 6919 6920 1
6556 6920 6921 1
6557 6921 6922 1
6558 6922 6923 1
6559 6923 6924 1
6560 6924 6925 1
6561 6925 6926 1
6562 6926 6927 1
6563 6927 6928 1
6564 6928 6929 1
6565 6929 6930 1
6566 6930 6931 1
6567 6931 6932 1
6568 6932 6933 1
6569 6933 6934 1
6570 6934 6935 1
6571 6936 6937 1
6572 6937 6938 1
6573 6938 6939 1
6574 6939 6940 1
6575 6940 6941 1
6576 6941 6942 1
6577 6942 6943 1
6578 6943 6944 1
6579 6944 6945 1
6580 6945 6946 1
6581 6946 6947 1
6582 6947 6948 1
6583 6948 6949 1
6584 6949 6950 1
6585 6950 6951 1
6586 6951 6952 1
6587 6952 6953 1
6588 6953 6954 1
6589 6955 6956 1
6590 6956 6957 1
6591 6957 6958 1
6592 6958 6959 1
6593 6959 6960 1
6594 6960 6961 1
6595 6961 6962 1
6596 6962 6963 1
6597 6963 6964 1
6598 6964 6965 1
6599 6965 6966 1
6600 6966 6967 1
6601 6967 6968 1
6602 6968 6969 1
6603 6969 6970 1
6604 6970 6971 1
6605 6971 6972 1
6606 6972 6973 1
6607 6974 6975 1
6608 6975 6976 1
6609 6976 6977 1
6610 6977 6978 1
6611 6978 6979 1
6612 6979 6980 1
6613 6980 6981 1
6614 6981 6982 1
6615 6982 6983 1
6616 6983 6984 1
6617 6984 6985 1
6618 6985 6986 1
6619 6986 6987 1
6620 6987 6988 1
6621 6988 6989 1
6622 6989 6990 1
6623 6990 6991 1
6624 6991 6992 1
6625 6993 6994 1
6626 6994 6995 1
6627 6995 6996 1
6628 6996 6997 1
6629 6997 6998 1
6630 6998 6999 1
6631 6999 7000 1
6632 7000 7001 1
6633 7001 7002 1
6634 7002 7003 1
6635 7003 7004 1
6636 7004 7005 1
6637 7005 7006 1
6638 7006 7007 1
6639 7007 7008 1
6640 7008 7009 1
6641 7009 7010 1
6642 7010 7011 1
6643 7012 7013 1
6644 7013 7014 1
6645 7014 7015 1
6646 7015 7016 1
6647 7016 7017 1
6648 7017 7018 1
6649 7018 7019 1
6650 7019 7020 1
6651 7020 7021 1
6652 7021 7022 1
6653 7022 7023 1
6654 7023 7024 1
6655 7024 7025 1
6656 7025 7026 1
6657 7026 7027 1
6658 7027 7028 1
6659 7028 7029 1
6660 7029 7030 1
6661 7031 7032 1
6662 7032 7033 1
6663 7033 7034 1
6664 7034 7035 1
6665 7035 7036 1
6666 7036 7037 1
6667 7037 7038 1
6668 7038 7039 1
6669 7039 7040 1
6670 7040 7041 1
6671 7041 7042 1
6672 7042 7043 1
6673 7043 7044 1
6674 7044 7045 1
6675 7045 7046 1
6676 7046 7047 1
6677 7047 7048 1
6678 7048 7049 1
6679 7050 7051 1
6680 7051 7052 1
6681 7052 7053 1
6682 7053 7054 1
6683 7054 7055 1
6684 7055 7056 1
6685 7056 7057 1
6686 7057 7058 1
6687 7058 7059 1
6688 7059 7060 1
6689 7060 7061 1
6690 7061 7062 1
6691 7062 7063 1
6692 7063 7064 1
6693 7064 7065 1
6694 7065 7066 1
6695 7066 7067 1
6696 7067 7068 1
6697 7069 7070 1
6698 7070 7071 1
6699 7071 7072 1
6700 7072 7073 1
6701 7073 7074 1
6702 7074 7075 1
6703 7075 7076 1
6704 7076 7077 1
6705 7077 7078 1
6706 7078 7079 1
6707 7079 7080 1
6708 7080 7081 1
6709 7081 7082 1
6710 7082 7083 1
6711 7083 7084 1
6712 7084 7085 1
6713 7085 7086 1
6714 7086 7087 1
6715 7088 7089 1
6716 7089 7090 1
6717 7090 7091 1
6718 7091 7092 1
6719 7092 7093 1
6720 7093 7094 1
6721 7094 7095 1
6722 7095 7096 1
6723 7096 7097 1
6724 7097 7098 1
6725 7098 7099 1
6726 7099 7100 1
6727 7100 7101 1
6728 7101 7102 1
6729 7102 7103 1
6730 7103 7104 1
6731 7104 7105 1
6732 7105 7106 1
6733 7107 7108 1
6734 7108 7109 1
6735 7109 7110 1
6736 7110 7111 1
6737 7111 7112 1
6738 7112 7113 1
6739 7113 7114 1
6740 7114 7115 1
6741 7115 7116 1
6742 7116 7117 1
6743 7117 7118 1
6744 7118 7119 1
6745 7119 7120 1
6746 7120 7121 1
6747 7121 7122 1
6748 7122 7123 1
6749 7123 7124 1
6750 7124 7125 1
6751 7126 7127 1
6752 7127 7128 1
6753 7128 7129 1
6754 7129 7130 1
6755 7130 7131 1
6756 7131 7132 1
6757 7132 7133 1
6758 7133 7134 1
6759 7134 7135 1
6760 7135 7136 1
6761 7136 7137 1
6762 7137 7138 1
6763 7138 7139 1
6764 7139 7140 1
6765 7140 7141 1
6766 7141 7142 1
6767 7142 7143 1
6768 7143 7144 1
6769 7145 7146 1
6770 7146 7147 1
6771 7147 7148 1
6772 7148 7149 1
6773 7149 7150 1
6774 7150 7151 1
6775 7151 7152 1
6776 7152 7153 1
6777 7153 7154 1
6778 7154 7155 1
6779 7155 7156 1
6780 7156 7157 1
6781 7157 7158 1
6782 7158 7159 1
6783 7159 7160 1
6784 7160 7161 1
6785 7161 7162 1
6786 7162 7163 1
6787 7164 7165 1
6788 7165 7166 1
6789 7166 7167 1
6790 7167 7168 1
6791 7168 7169 1
6792 7169 7170 1
6793 7170 7171 1
6794 7171 7172 1
6795 7172 7173 1
6796 7173 7174 1
6797 7174 7175 1
6798 7175 7176 1
6799 7176 7177 1
6800 7177 7178 1
6801 7178 7179 1
6802 7179 7180 1
6803 7180 7181 1
6804 7181 7182 1
6805 7183 7184 1
6806 7184 7185 1
6807 7185 7186 1
6808 7186 7187 1
6809 7187 7188 1
6810 7188 7189 1
6811 7189 7190 1
6812 7190 7191 1
6813 7191 7192 1
6814 7192 7193 1
6815 7193 7194 1
6816 7194 7195 1
6817 7195 7196 1
6818 7196 7197 1
6819 7197 7198 1
6820 7198 7199 1
6821 7199 7200 1
6822 7200 7201 1
6823 7202 7203 1
6824 7203 7204 1
6825 7204 7205 1
6826 7205 7206 1
6827 7206 7207 1
6828 7207 7208 1
6829 7208 7209 1
6830 7209 7210 1
6831 7210 7211 1
6832 7211 7212 1
6833 7212 7213 1
6834 7213 7214 1
6835 7214 7215 1
6836 7215 7216 1
6837 7216 7217 1
6838 7217 7218 1
6839 7218 7219 1
6840 7219 7220 1
6841 7221 7222 1
6842 7222 7223 1
6843 7223 7224 1
6844 7224 7225 1
6845 7225 7226 1
6846 7226 7227 1
6847 7227 7228 1
6848 7228 7229 1
6849 7229 7230 1
6850 7230 7231 1
6851 7231 7232 1
6852 7232 7233 1
6853 7233 7234 1
6854 7234 7235 1
6855 7235 7236 1
6856 7236 7237 1
6857 7237 7238 1
6858 7238 7239 1
6859 7240 7241 1
6860 7241 7242 1
6861 7242 7243 1
6862 7243 7244 1
6863 7244 7245 1
6864 7245 7246 1
6865 7246 7247 1
6866 7247 7248 1
6867 7248 7249 1
6868 7249 7250 1
6869 7250 7251 1
6870 7251 7252 1
6871 7252 7253 1
6872 7253 7254 1
6873 7254 7255 1
6874 7255 7256 1
6875 7256 7257 1
6876 7257 7258 1
6877 7259 7260 1
6878 7260 7261 1
6879 7261 7262 1
6880 7262 7263 1
6881 7263 7264 1
6882 7264 7265 1
6883 7265 7266 1
6884 7266 7267 1
6885 7267 7268 1
6886 7268 7269 1
6887 7269 7270 1
6888 7270 7271 1
6889 7271 7272 1
6890 7272 7273 1
6891 7273 7274 1
6892 7274 7275 1
6893 7275 7276 1
6894 7276 7277 1
6895 7278 7279 1
6896 7279 7280 1
6897 7280 7281 1
6898 7281 7282 1
6899 7282 7283 1
6900 7283 7284 1
6901 7284 7285 1
6902 7285 7286 1
6903 7286 7287 1
6904 7287 7288 1
6905 7288 7289 1
6906 7289 7290 1
6907 7290 7291 1
6908 7291 7292 1
6909 7292 7293 1
6910 7293 7294 1
6911 7294 7295 1
6912 7295 7296 1
6913 7297 7298 1
6914 7298 7299 1
6915 7299 7300 1
6916 7300 7301 1
6917 7301 7302 1
6918 7302 7303 1
6919 7303 7304 1
6920 7304 7305 1
6921 7305 7306 1
6922 7306 7307 1
6923 7307 7308 1
6924 7308 7309 1
6925 7309 7310 1
6926 7310 7311 1
6927 7311 7312 1
6928 7312 7313 1
6929 7313 7314 1
6930 7314 7315 1
6931 7316 7317 1
6932 7317 7318 1
6933 7318 7319 1
6934 7319 7320 1
6935 7320 7321 1
6936 7321 7322 1
6937 7322 7323 1
6938 7323 7324 1
6939 7324 7325 1
6940 7325 7326 1
6941 7326 7327 1
6942 7327 7328 1
6943 7328 7329 1
6944 7329 7330 1
6945 7330 7331 1
6946 7331 7332 1
6947 7332 7333 1
6948 7333 7334 1
6949 7335 7336 1
6950 7336 7337 1
6951 7337 7338 1
6952 7338 7339 1
6953 7339 7340 1
6954 7340 7341 1
6955 7341 7342 1
6956 7342 7343 1
6957 7343 7344 1
6958 7344 7345 1
6959 7345 7346 1
6960 7346 7347 1
6961 7347 7348 1
6962 7348 7349 1
6963 7349 7350 1
6964 7350 7351 1
6965 7351 7352 1
6966 7352 7353 1
6967 7354 7355 1
6968 7355 7356 1
6969 7356 7357 1
6970 7357 7358 1
6971 7358 7359 1
6972 7359 7360 1
6973 7360 7361 1
6974 7361 7362 1
6975 7362 7363 1
6976 7363 7364 1
6977 7364 7365 1
6978 7365 7366 1
6979 7366 7367 1
6980 7367 7368 1
6981 7368 7369 1
6982 7369 7370 1
6983 7370 7371 1
6984 7371 7372 1
6985 7373 7374 1
6986 7374 7375 1
6987 7375 7376 1
6988 7376 7377 1
6989 7377 7378 1
6990 7378 7379 1
6991 7379 7380 1
6992 7380 7381 1
6993 7381 7382 1
6994 7382 7383 1
6995 7383 7384 1
6996 7384 7385 1
6997 7385 7386 1
6998 7386 7387 1
6999 7387 7388 1
7000 7388 7389 1
7001 7389 7390 1
7002 7390 7391 1
7003 7392 7393 1
7004 7393 7394 1
7005 7394 7395 1
7006 7395 7396 1
7007 7396 7397 1
7008 7397 7398 1
7009 7398 7399 1
7010 7399 7400 1
7011 7400 7401 1
7012 7401 7402 1
7013 7402 7403 1
7014 7403 7404 1
7015 7404 7405 1
7016 7405 7406 1
7017 7406 7407 1
7018 7407 7408 1
7019 7408 7409 1
7020 7409 7410 1
7021 7411 7412 1
7022 7412 7413 1
7023 7413 7414 1
7024 7414 7415 1
7025 7415 7416 1
7026 7416 7417 1
7027 7417 7418 1
7028 7418 7419 1
7029 7419 7420 1
7030 7420 7421 1
7031 7421 7422 1
7032 7422 7423 1
7033 7423 7424 1
7034 7424 7425 1
7035 7425 7426 1
7036 7426 7427 1
7037 7427 7428 1
7038 7428 7429 1
7039 7430 7431 1
7040 7431 7432 1
7041 7432 7433 1
7042 7433 7434 1
7043 7434 7435 1
7044 7435 7436 1
7045 7436 7437 1
7046 7437 7438 1
7047 7438 7439 1
7048 7439 7440 1
7049 7440 7441 1
7050 7441 7442 1
7051 7442 7443 1
7052 7443 7444 1
7053 7444 7445 1
7054 7445 7446 1
7055 7446 7447 1
7056 7447 7448 1
7057 7449 7450 1
7058 7450 7451 1
7059 7451 7452 1
7060 7452 7453 1
7061 7453 7454 1
7062 7454 7455 1
7063 7455 7456 1
7064 7456 7457 1
7065 7457 7458 1
7066 7458 7459 1
7067 7459 7460 1
7068 7460 7461 1
7069 7461 7462 1
7070 7462 7463 1
7071 7463 7464 1
7072 7464 7465 1
7073 7465 7466 1
7074 7466 7467 1
7075 7468 7469 1
7076 7469 7470 1
7077 7470 7471 1
7078 7471 7472 1
7079 7472 7473 1
7080 7473 7474 1
7081 7474 7475 1
7082 7475 7476 1
7083 7476 7477 1
7084 7477 7478 1
7085 7478 7479 1
7086 7479 7480 1
7087 7480 7481 1
7088 7481 7482 1
7089 7482 7483 1
7090 7483 7484 1
7091 7484 7485 1
7092 7485 7486 1
7093 7487 7488 1
7094 7488 7489 1
7095 7489 7490 1
7096 7490 7491 1
7097 7491 7492 1
7098 7492 7493 1
7099 7493 7494 1
7100 7494 7495 1
7101 7495 7496 1
7102 7496 7497 1
7103 7497 7498 1
7104 7498 7499 1
7105 7499 7500 1
7106 7500 7501 1
7107 7501 7502 1
7108 7502 7503 1
7109 7503 7504 1
7110 7504 7505 1
7111 7506 7507 1
7112 7507 7508 1
7113 7508 7509 1
7114 7509 7510 1
7115 7510 7511 1
7116 7511 7512 1
7117 7512 7513 1
7118 7513 7514 1
7119 7514 7515 1
7120 7515 7516 1
7121 7516 7517 1
7122 7517 7518 1
7123 7518 7519 1
7124 7519 7520 1
7125 7520 7521 1
7126 7521 7522 1
7127 7522 7523 1
7128 7523 7524 1
7129 7525 7526 1
7130 7526 7527 1
7131 7527 7528 1
7132 7528 7529 1
7133 7529 7530 1
7134 7530 7531 1
7135 7531 7532 1
7136 7532 7533 1
7137 7533 7534 1
7138 7534 7535 1
7139 7535 7536 1
7140 7536 7537 1
7141 7537 7538 1
7142 7538 7539 1
7143 7539 7540 1
7144 7540 7541 1
7145 7541 7542 1
7146 7542 7543 1
7147 7544 7545 1
7148 7545 7546 1
7149 7546 7547 1
7150 7547 7548 1
7151 7548 7549 1
7152 7549 7550 1
7153 7550 7551 1
7154 7551 7552 1
7155 7552 7553 1
7156 7553 7554 1
7157 7554 7555 1
7158 7555 7556 1
7159 7556 7557 1
7160 7557 7558 1
7161 7558 7559 1
7162 7559 7560 1
7163 7560 7561 1
7164 7561 7562 1
7165 7563 7564 1
7166 7564 7565 1
7167 7565 7566 1
7168 7566 7567 1
7169 7567 7568 1
7170 7568 7569 1
7171 7569 7570 1
7172 7570 7571 1
7173 7571 7572 1
7174 7572 7573 1
7175 7573 7574 1
7176 7574 7575 1
7177 7575 7576 1
7178 7576 7577 1
7179 7577 7578 1
7180 7578 7579 1
7181 7579 7580 1
7182 7580 7581 1
7183 7582 7583 1
7184 7583 7584 1
7185 7584 7585 1
7186 7585 7586 1
7187 7586 7587 1
7188 7587 7588 1
7189 7588 7589 1
7190 7589 7590 1
7191 7590 7591 1
7192 7591 7592 1
7193 7592 7593 1
7194 7593 7594 1
7195 7594 7595 1
7196 7595 7596 1
7197 7596 7597 1
7198 7597 7598 1
7199 7598 7599 1
7200 7599 7600 1
7201 7601 7602 1
7202 7602 7603 1
7203 7603 7604 1
7204 7604 7605 1
7205 7605 7606 1
7206 7606 7607 1
7207 7607 7608 1
7208 7608 7609 1
7209 7609 7610 1
7210 7610 7611 1
7211 7611 7612 1
7212 7612 7613 1
7213 7613 7614 1
7214 7614 7615 1
7215 7615 7616 1
7216 7616 7617 1
7217 7617 7618 1
7218 7618 7619 1
7219 7620 7621 1
7220 7621 7622 1
7221 7622 7623 1
7222 7623 7624 1
7223 7624 7625 1
7224 7625 7626 1
7225 7626 7627 1
7226 7627 7628 1
7227 7628 7629 1
7228 7629 7630 1
7229 7630 7631 1
7230 7631 7632 1
7231 7632 7633 1
7232 7633 7634 1
7233 7634 7635 1
7234 7635 7636 1
7235 7636 7637 1
7236 7637 7638 1
7237 7639 7640 1
7238 7640 7641 1
7239 7641 7642 1
7240 7642 7643 1
7241 7643 7644 1
7242 7644 7645 1
7243 7645 7646 1
7244 7646 7647 1
7245 7647 7648 1
7246 7648 7649 1
7247 7649 7650 1
7248 7650 7651 1
7249 7651 7652 1
7250 7652 7653 1
7251 7653 7654 1
7252 7654 7655 1
7253 7655 7656 1
7254 7656 7657 1
7255 7658 7659 1
7256 7659 7660 1
7257 7660 7661 1
7258 7661 7662 1
7259 7662 7663 1
7260 7663 7664 1
7261 7664 7665 1
7262 7665 7666 1
7263 7666 7667 1
7264 7667 7668 1
7265 7668 7669 1
7266 7669 7670 1
7267 7670 7671 1
7268 7671 7672 1
7269 7672 7673 1
7270 7673 7674 1
7271 7674 7675 1
7272 7675 7676 1
7273 7677 7678 1
7274 7678 7679 1
7275 7679 7680 1
7276 7680 7681 1
7277 7681 7682 1
7278 7682 7683 1
7279 7683 7684 1
7280 7684 7685 1
7281 7685 7686 1
7282 7686 7687 1
7283 7687 7688 1
7284 7688 7689 1
7285 7689 7690 1
7286 7690 7691 1
7287 7691 7692 1
7288 7692 7693 1
7289 7693 7694 1
7290 7694 7695 1
7291 7696 7697 1
7292 7697 7698 1
7293 7698 7699 1
7294 7699 7700 1
7295 7700 7701 1
7296 7701 7702 1
7297 7702 7703 1
7298 7703 7704 1
7299 7704 7705 1
7300 7705 7706 1
7301 7706 7707 1
7302 7707 7708 1
7303 7708 7709 1
7304 7709 7710 1
7305 7710 7711 1
7306 7711 7712 1
7307 7712 7713 1
7308 7713 7714 1
7309 7715 7716 1
7310 7716 7717 1
7311 7717 7718 1
7312 7718 7719 1
7313 7719 7720 1
7314 7720 7721 1
7315 7721 7722 1
7316 7722 7723 1
7317 7723 7724 1
7318 7724 7725 1
7319 7725 7726 1
7320 7726 7727 1
7321 7727 7728 1
7322 7728 7729 1
7323 7729 7730 1
7324 7730 7731 1
7325 7731 7732 1
7326 7732 7733 1
7327 7734 7735 1
7328 7735 7736 1
7329 7736 7737 1
7330 7737 7738 1
7331 7738 7739 1
7332 7739 7740 1
7333 7740 7741 1
7334 7741 7742 1
7335 7742 7743 1
7336 7743 7744 1
7337 7744 7745 1
7338 7745 7746 1
7339 7746 7747 1
7340 7747 7748 1
7341 7748 7749 1
7342 7749 7750 1
7343 7750 7751 1
7344 7751 7752 1
7345 7753 7754 1
7346 7754 7755 1
7347 7755 7756 1
7348 7756 7757 1
7349 7757 7758 1
7350 7758 7759 1
7351 7759 7760 1
7352 7760 7761 1
7353 7761 7762 1
7354 7762 7763 1
7355 7763 7764 1
7356 7764 7765 1
7357 7765 7766 1
7358 7766 7767 1
7359 7767 7768 1
7360 7768 7769 1
7361 7769 7770 1
7362 7770 7771 1
7363 7772 7773 1
7364 7773 7774 1
7365 7774 7775 1
7366 7775 7776 1
7367 7776 7777 1
7368 7777 7778 1
7369 7778 7779 1
7370 7779 7780 1
7371 7780 7781 1
7372 7781 7782 1
7373 7782 7783 1
7374 7783 7784 1
7375 7784 7785 1
7376 7785 7786 1
7377 7786 7787 1
7378 7787 7788 1
7379 7788 7789 1
7380 7789 7790 1
7381 7791 7792 1
7382 7792 7793 1
7383 7793 7794 1
7384 7794 7795 1
7385 7795 7796 1
7386 7796 7797 1
7387 7797 7798 1
7388 7798 7799 1
7389 7799 7800 1
7390 7800 7801 1
7391 7801 7802 1
7392 7802 7803 1
7393 7803 7804 1
7394 7804 7805 1
7395 7805 7806 1
7396 7806 7807 1
7397 7807 7808 1
7398 7808 7809 1
7399 7810 7811 1
7400 7811 7812 1
7401 7812 7813 1
7402 7813 7814 1
7403 7814 7815 1
7404 7815 7816 1
7405 7816 7817 1
7406 7817 7818 1
7407 7818 7819 1
7408 7819 7820 1
7409 7820 7821 1
7410 7821 7822 1
7411 7822 7823 1
7412 7823 7824 1
7413 7824 7825 1
7414 7825 7826 1
7415 7826 7827 1
7416 7827 7828 1
7417 7829 7830 1
7418 7830 7831 1
7419 7831 7832 1
7420 7832 7833 1
7421 7833 7834 1
7422 7834 7835 1
7423 7835 7836 1
7424 7836 7837 1
7425 7837 7838 1
7426 7838 7839 1
7427 7839 7840 1
7428 7840 7841 1
7429 7841 7842 1
7430 7842 7843 1
7431 7843 7844 1
7432 7844 7845 1
7433 7845 7846 1
7434 7846 7847 1
7435 7848 7849 1
7436 7849 7850 1
7437 7850 7851 1
7438 7851 7852 1
7439 7852 7853 1
7440 7853 7854 1
7441 7854 7855 1
7442 7855 7856 1
7443 7856 7857 1
7444 7857 7858 1
7445 7858 7859 1
7446 7859 7860 1
7447 7860 7861 1
7448 7861 7862 1
7449 7862 7863 1
7450 7863 7864 1
7451 7864 7865 1
7452 7865 7866 1
7453 7867 7868 1
7454 7868 7869 1
7455 7869 7870 1
7456 7870 7871 1
7457 7871 7872 1
7458 7872 7873 1
7459 7873 7874 1
7460 7874 7875 1
7461 7875 7876 1
7462 7876 7877 1
7463 7877 7878 1
7464 7878 7879 1
7465 7879 7880 1
7466 7880 7881 1
7467 7881 7882 1
7468 7882 7883 1
7469 7883 7884 1
7470 7884 7885 1
7471 7886 7887 1
7472 7887 7888 1
7473 7888 7889 1
7474 7889 7890 1
7475 7890 7891 1
7476 7891 7892 1
7477 7892 7893 1
7478 7893 7894 1
7479 7894 7895 1
7480 7895 7896 1
7481 7896 7897 1
7482 7897 7898 1
7483 7898 7899 1
7484 7899 7900 1
7485 7900 7901 1
7486 7901 7902 1
7487 7902 7903 1
7488 7903 7904 1
7489 7905 7906 1
7490 7906 7907 1
7491 7907 7908 1
7492 7908 7909 1
7493 7909 7910 1
7494 7910 7911 1
7495 7911 7912 1
7496 7912 7913 1
7497 7913 7914 1
7498 7914 7915 1
7499 7915 7916 1
7500 7916 7917 1
7501 7917 7918 1
7502 7918 7919 1
7503 7919 7920 1
7504 7920 7921 1
7505 7921 7922 1
7506 7922 7923 1
7507 7924 7925 1
7508 7925 7926 1
7509 7926 7927 1
7510 7927 7928 1
7511 7928 7929 1
7512 7929 7930 1
7513 7930 7931 1
7514 7931 7932 1
7515 7932 7933 1
7516 7933 7934 1
7517 7934 7935 1
7518 7935 7936 1
7519 7936 7937 1
7520 7937 7938 1
7521 7938 7939 1
7522 7939 7940 1
7523 7940 7941 1
7524 7941 7942 1
7525 7943 7944 1
7526 7944 7945 1
7527 7945 7946 1
7528 7946 7947 1
7529 7947 7948 1
7530 7948 7949 1
7531 7949 7950 1
7532 7950 7951 1
7533 7951 7952 1
7534 7952 7953 1
7535 7953 7954 1
7536 7954 7955 1
7537 7955 7956 1
7538 7956 7957 1
7539 7957 7958 1
7540 7958 7959 1
7541 7959 7960 1
7542 7960 7961 1
7543 7962 7963 1
7544 7963 7964 1
7545 7964 7965 1
7546 7965 7966 1
7547 7966 7967 1
7548 7967 7968 1
7549 7968 7969 1
7550 7969 7970 1
7551 7970 7971 1
7552 7971 7972 1
7553 7972 7973 1
7554 7973 7974 1
7555 7974 7975 1
7556 7975 7976 1
7557 7976 7977 1
7558 7977 7978 1
7559 7978 7979 1
7560 7979 7980 1
7561 7981 7982 1
7562 7982 7983 1
7563 7983 7984 1
7564 7984 7985 1
7565 7985 7986 1
7566 7986 7987 1
7567 7987 7988 1
7568 7988 7989 1
7569 7989 7990 1
7570 7990 7991 1
7571 7991 7992 1
7572 7992 7993 1
7573 7993 7994 1
7574 7994 7995 1
7575 7995 7996 1
7576 7996 7997 1
7577 7997 7998 1
7578 7998 7999 1
7579 8000 8001 1
7580 8001 8002 1
7581 8002 8003 1
7582 8003 8004 1
7583 8004 8005 1
7584 8005 8006 1
7585 8006 8007 1
7586 8007 8008 1
7587 8008 8009 1
7588 8009 8010 1
7589 8010 8011 1
7590 8011 8012 1
7591 8012 8013 1
7592 8013 8014 1
7593 8014 8015 1
7594 8015 8016 1
7595 8016 8017 1
7596 8017 8018 1
7597 8019 8020 1
7598 8020 8021 1
7599 8021 8022 1
7600 8022 8023 1
7601 8023 8024 1
7602 8024 8025 1
7603 8025 8026 1
7604 8026 8027 1
7605 8027 8028 1
7606 8028 8029 1
7607 8029 8030 1
7608 8030 8031 1
7609 8031 8032 1
7610 8032 8033 1
7611 8033 8034 1
7612 8034 8035 1
7613 8035 8036 1
7614 8036 8037 1
7615 8038 8039 1
7616 8039 8040 1
7617 8040 8041 1
7618 8041 8042 1
7619 8042 8043 1
7620 8043 8044 1
7621 8044 8045 1
7622 8045 8046 1
7623 8046 8047 1
7624 8047 8048 1
7625 8048 8049 1
7626 8049 8050 1
7627 8050 8051 1
7628 8051 8052 1
7629 8052 8053 1
7630 8053 8054 1
7631 8054 8055 1
7632 8055 8056 1
7633 8057 8058 1
7634 8058 8059 1
7635 8059 8060 1
7636 8060 8061 1
7637 8061 8062 1
7638 8062 8063 1
7639 8063 8064 1
7640 8064 8065 1
7641 8065 8066 1
7642 8066 8067 1
7643 8067 8068 1
7644 8068 8069 1
7645 8069 8070 1
7646 8070 8071 1
7647 8071 8072 1
7648 8072 8073 1
7649 8073 8074 1
7650 8074 8075 1
7651 8076 8077 1
7652 8077 8078 1
7653 8078 8079 1
7654 8079 8080 1
7655 8080 8081 1
7656 8081 8082 1
7657 8082 8083 1
7658 8083 8084 1
7659 8084 8085 1
7660 8085 8086 1
7661 8086 8087 1
7662 8087 8088 1
7663 8088 8089 1
7664 8089 8090 1
7665 8090 8091 1
7666 8091 8092 1
7667 8092 8093 1
7668 8093 8094 1
7669 8095 8096 1
7670 8096 8097 1
7671 8097 8098 1
7672 8098 8099 1
7673 8099 8100 1
7674 8100 8101 1
7675 8101 8102 1
7676 8102 8103 1
7677 8103 8104 1
7678 8104 8105 1
7679 8105 8106 1
7680 8106 8107 1
7681 8107 8108 1
7682 8108 8109 1
7683 8109 8110 1
7684 8110 8111 1
7685 8111 8112 1
7686 8112 8113 1
7687 8114 8115 1
7688 8115 8116 1
7689 8116 8117 1
7690 8117 8118 1
7691 8118 8119 1
7692 8119 8120 1
7693 8120 8121 1
7694 8121 8122 1
7695 8122 8123 1
7696 8123 8124 1
7697 8124 8125 1
7698 8125 8126 1
7699 8126 8127 1
7700 8127 8128 1
7701 8128 8129 1
7702 8129 8130 1
7703 8130 8131 1
7704 8131 8132 1
7705 8133 8134 1
7706 8134 8135 1
7707 8135 8136 1
7708 8136 8137 1
7709 8137 8138 1
7710 8138 8139 1
7711 8139 8140 1
7712 8140 8141 1
7713 8141 8142 1
7714 8142 8143 1
7715 8143 8144 1
7716 8144 8145 1
7717 8145 8146 1
7718 8146 8147 1
7719 8147 8148 1
7720 8148 8149 1
7721 8149 8150 1
7722 8150 8151 1
7723 8152 8153 1
7724 8153 8154 1
7725 8154 8155 1
7726 8155 8156 1
7727 8156 8157 1
7728 8157 8158 1
7729 8158 8159 1
7730 8159 8160 1
7731 8160 8161 1
7732 8161 8162 1
7733 8162 8163 1
7734 8163 8164 1
7735 8164 8165 1
7736 8165 8166 1
7737 8166 8167 1
7738 8167 8168 1
7739 8168 8169 1
7740 8169 8170 1
7741 8171 8172 1
7742 8172 8173 1
7743 8173 8174 1
7744 8174 8175 1
7745 8175 8176 1
7746 8176 8177 1
7747 8177 8178 1
7748 8178 8179 1
7749 8179 8180 1
7750 8180 8181 1
7751 8181 8182 1
7752 8182 8183 1
7753 8183 8184 1
7754 8184 8185 1
7755 8185 8186 1
7756 8186 8187 1
7757 8187 8188 1
7758 8188 8189 1
7759 8190 8191 1
7760 8191 8192 1
7761 8192 8193 1
7762 8193 8194 1
7763 8194 8195 1
7764 8195 8196 1
7765 8196 8197 1
7766 8197 8198 1
7767 8198 8199 1
7768 8199 8200 1
7769 8200 8201 1
7770 8201 8202 1
7771 8202 8203 1
7772 8203 8204 1
7773 8204 8205 1
7774 8205 8206 1
7775 8206 8207 1
7776 8207 8208 1
7777 8209 8210 1
7778 8210 8211 1
7779 8211 8212 1
7780 8212 8213 1
7781 8213 8214 1
7782 8214 8215 1
7783 8215 8216 1
7784 8216 8217 1
7785 8217 8218 1
7786 8218 8219 1
7787 8219 8220 1
7788 8220 8221 1
7789 8221 8222 1
7790 8222 8223 1
7791 8223 8224 1
7792 8224 8225 1
7793 8225 8226 1
7794 8226 8227 1
7795 8228 8229 1
7796 8229 8230 1
7797 8230 8231 1
7798 8231 8232 1
7799 8232 8233 1
7800 8233 8234 1
7801 8234 8235 1
7802 8235 8236 1
7803 8236 8237 1
7804 8237 8238 1
7805 8238 8239 1
7806 8239 8240 1
7807 8240 8241 1
7808 8241 8242 1
7809 8242 8243 1
7810 8243 8244 1
7811 8244 8245 1
7812 8245 8246 1
7813 8247 8248 1
7814 8248 8249 1
7815 8249 8250 1
7816 8250 8251 1
7817 8251 8252 1
7818 8252 8253 1
7819 8253 8254 1
7820 8254 8255 1
7821 8255 8256 1
7822 8256 8257 1
7823 8257 8258 1
7824 8258 8259 1
7825 8259 8260 1
7826 8260 8261 1
7827 8261 8262 1
7828 8262 8263 1
7829 8263 8264 1
7830 8264 8265 1
7831 8266 8267 1
7832 8267 8268 1
7833 8268 8269 1
7834 8269 8270 1
7835 8270 8271 1
7836 8271 8272 1
7837 8272 8273 1
7838 8273 8274 1
7839 8274 8275 1
7840 8275 8276 1
7841 8276 8277 1
7842 8277 8278 1
7843 8278 8279 1
7844 8279 8280 1
7845 8280 8281 1
7846 8281 8282 1
7847 8282 8283 1
7848 8283 8284 1
7849 8285 8286 1
7850 8286 8287 1
7851 8287 8288 1
7852 8288 8289 1
7853 8289 8290 1
7854 8290 8291 1
7855 8291 8292 1
7856 8292 8293 1
7857 8293 8294 1
7858 8294 8295 1
7859 8295 8296 1
7860 8296 8297 1
7861 8297 8298 1
7862 8298 8299 1
7863 8299 8300 1
7864 8300 8301 1
7865 8301 8302 1
7866 8302 8303 1
7867 8304 8305 1
7868 8305 8306 1
7869 8306 8307 1
7870 8307 8308 1
7871 8308 8309 1
7872 8309 8310 1
7873 8310 8311 1
7874 8311 8312 1
7875 8312 8313 1
7876 8313 8314 1
7877 8314 8315 1
7878 8315 8316 1
7879 8316 8317 1
7880 8317 8318 1
7881 8318 8319 1
7882 8319 8320 1
7883 8320 8321 1
7884 8321 8322 1
7885 8323 8324 1
7886 8324 8325 1
7887 8325 8326 1
7888 8326 8327 1
7889 8327 8328 1
7890 8328 8329 1
7891 8329 8330 1
7892 8330 8331 1
7893 8331 8332 1
7894 8332 8333 1
7895 8333 8334 1
7896 8334 8335 1
7897 8335 8336 1
7898 8336 8337 1
7899 8337 8338 1
7900 8338 8339 1
7901 8339 8340 1
7902 8340 8341 1
7903 8342 8343 1
7904 8343 8344 1
7905 8344 8345 1
7906 8345 8346 1
7907 8346 8347 1
7908 8347 8348 1
7909 8348 8349 1
7910 8349 8350 1
7911 8350 8351 1
7912 8351 8352 1
7913 8352 8353 1
7914 8353 8354 1
7915 8354 8355 1
7916 8355 8356 1
7917 8356 8357 1
7918 8357 8358 1
7919 8358 8359 1
7920 8359 8360 1
7921 8361 8362 1
7922 8362 8363 1
7923 8363 8364 1
7924 8364 8365 1
7925 8365 8366 1
7926 8366 8367 1
7927 8367 8368 1
7928 8368 8369 1
7929 8369 8370 1
7930 8370 8371 1
7931 8371 8372 1
7932 8372 8373 1
7933 8373 8374 1
7934 8374 8375 1
7935 8375 8376 1
7936 8376 8377 1
7937 8377 8378 1
7938 8378 8379 1
7939 8380 8381 1
7940 8381 8382 1
7941 8382 8383 1
7942 8383 8384 1
7943 8384 8385 1
7944 8385 8386 1
7945 8386 8387 1
7946 8387 8388 1
7947 8388 8389 1
7948 8389 8390 1
7949 8390 8391 1
7950 8391 8392 1
7951 8392 8393 1
7952 8393 8394 1
7953 8394 8395 1
7954 8395 8396 1
7955 8396 8397 1
7956 8397 8398 1
7957 8399 8400 1
7958 8400 8401 1
7959 8401 8402 1
7960 8402 8403 1
7961 8403 8404 1
7962 8404 8405 1
7963 8405 8406 1
7964 8406 8407 1
7965 8407 8408 1
7966 8408 8409 1
7967 8409 8410 1
7968 8410 8411 1
7969 8411 8412 1
7970 8412 8413 1
7971 8413 8414 1
7972 8414 8415 1
7973 8415 8416 1
7974 8416 8417 1
7975 8418 8419 1
7976 8419 8420 1
7977 8420 8421 1
7978 8421 8422 1
7979 8422 8423 1
7980 8423 8424 1
7981 8424 8425 1
7982 8425 8426 1
7983 8426 8427 1
7984 8427 8428 1
7985 8428 8429 1
7986 8429 8430 1
7987 8430 8431 1
7988 8431 8432 1
7989 8432 8433 1
7990 8433 8434 1
7991 8434 8435 1
7992 8435 8436 1
7993 8437 8438 1
7994 8438 8439 1
7995 8439 8440 1
7996 8440 8441 1
7997 8441 8442 1
7998 8442 8443 1
7999 8443 8444 1
8000 8444 8445 1
8001 8445 8446 1
8002 8446 8447 1
8003 8447 8448 1
8004 8448 8449 1
8005 8449 8450 1
8006 8450 8451 1
8007 8451 8452 1
8008 8452 8453 1
8009 8453 8454 1
8010 8454 8455 1
8011 8456 8457 1
8012 8457 8458 1
8013 8458 8459 1
8014 8459 8460 1
8015 8460 8461 1
8016 8461 8462 1
8017 8462 8463 1
8018 8463 8464 1
8019 8464 8465 1
8020 8465 8466 1
8021 8466 8467 1
8022 8467 8468 1
8023 8468 8469 1
8024 8469 8470 1
8025 8470 8471 1
8026 8471 8472 1
8027 8472 8473 1
8028 8473 8474 1
8029 8475 8476 1
8030 8476 8477 1
8031 8477 8478 1
8032 8478 8479 1
8033 8479 8480 1
8034 8480 8481 1
8035 8481 8482 1
8036 8482 8483 1
8037 8483 8484 1
8038 8484 8485 1
8039 8485 8486 1
8040 8486 8487 1
8041 8487 8488 1
8042 8488 8489 1
8043 8489 8490 1
8044 8490 8491 1
8045 8491 8492 1
8046 8492 8493 1
8047 8494 8495 1
8048 8495 8496 1
8049 8496 8497 1
8050 8497 8498 1
8051 8498 8499 1
8052 8499 8500 1
8053 8500 8501 1
8054 8501 8502 1
8055 8502 8503 1
8056 8503 8504 1
8057 8504 8505 1
8058 8505 8506 1
8059 8506 8507 1
8060 8507 8508 1
8061 8508 8509 1
8062 8509 8510 1
8063 8510 8511 1
8064 8511 8512 1
8065 8513 8514 1
8066 8514 8515 1
8067 8515 8516 1
8068 8516 8517 1
8069 8517 8518 1
8070 8518 8519 1
8071 8519 8520 1
8072 8520 8521 1
8073 8521 8522 1
8074 8522 8523 1
8075 8523 8524 1
8076 8524 8525 1
8077 8525 8526 1
8078 8526 8527 1
8079 8527 8528 1
8080 8528 8529 1
8081 8529 8530 1
8082 8530 8531 1
8083 8532 8533 1
8084 8533 8534 1
8085 8534 8535 1
8086 8535 8536 1
8087 8536 8537 1
8088 8537 8538 1
8089 8538 8539 1
8090 8539 8540 1
8091 8540 8541 1
8092 8541 8542 1
8093 8542 8543 1
8094 8543 8544 1
8095 8544 8545 1
8096 8545 8546 1
8097 8546 8547 1
8098 8547 8548 1
8099 8548 8549 1
8100 8549 8550 1
8101 8551 8552 1
8102 8552 8553 1
8103 8553 8554 1
8104 8554 8555 1
8105 8555 8556 1
8106 8556 8557 1
8107 8557 8558 1
8108 8558 8559 1
8109 8559 8560 1
8110 8560 8561 1
8111 8561 8562 1
8112 8562 8563 1
8113 8563 8564 1
8114 8564 8565 1
8115 8565 8566 1
8116 8566 8567 1
8117 8567 8568 1
8118 8568 8569 1
8119 8570 8571 1
8120 8571 8572 1
8121 8572 8573 1
8122 8573 8574 1
8123 8574 8575 1
8124 8575 8576 1
8125 8576 8577 1
8126 8577 8578 1
8127 8578 8579 1
8128 8579 8580 1
8129 8580 8581 1
8130 8581 8582 1
8131 8582 8583 1
8132 8583 8584 1
8133 8584 8585 1
8134 8585 8586 1
8135 8586 8587 1
8136 8587 8588 1
8137 8589 8590 1
8138 8590 8591 1
8139 8591 8592 1
8140 8592 8593 1
8141 8593 8594 1
8142 8594 8595 1
8143 8595 8596 1
8144 8596 8597 1
8145 8597 8598 1
8146 8598 8599 1
8147 8599 8600 1
8148 8600 8601 1
8149 8601 8602 1
8150 8602 8603 1
8151 8603 8604 1
8152 8604 8605 1
8153 8605 8606 1
8154 8606 8607 1
8155 8608 8609 1
8156 8609 8610 1
8157 8610 8611 1
8158 8611 8612 1
8159 8612 8613 1
8160 8613 8614 1
8161 8614 8615 1
8162 8615 8616 1
8163 8616 8617 1
8164 8617 8618 1
8165 8618 8619 1
8166 8619 8620 1
8167 8620 8621 1
8168 8621 8622 1
8169 8622 8623 1
8170 8623 8624 1
8171 8624 8625 1
8172 8625 8626 1
8173 8627 8628 1
8174 8628 8629 1
8175 8629 8630 1
8176 8630 8631 1
8177 8631 8632 1
8178 8632 8633 1
8179 8633 8634 1
8180 8634 8635 1
8181 8635 8636 1
8182 8636 8637 1
8183 8637 8638 1
8184 8638 8639 1
8185 8639 8640 1
8186 8640 8641 1
8187 8641 8642 1
8188 8642 8643 1
8189 8643 8644 1
8190 8644 8645 1
8191 8646 8647 1
8192 8647 8648 1
8193 8648 8649 1
8194 8649 8650 1
8195 8650 8651 1
8196 8651 8652 1
8197 8652 8653 1
8198 8653 8654 1
8199 8654 8655 1
8200 8655 8656 1
8201 8656 8657 1
8202 8657 8658 1
8203 8658 8659 1
8204 8659 8660 1
8205 8660 8661 1
8206 8661 8662 1
8207 8662 8663 1
8208 8663 8664 1
8209 8665 8666 1
8210 8666 8667 1
8211 8667 8668 1
8212 8668 8669 1
8213 8669 8670 1
8214 8670 8671 1
8215 8671 8672 1
8216 8672 8673 1
8217 8673 8674 1
8218 8674 8675 1
8219 8675 8676 1
8220 8676 8677 1
8221 8677 8678 1
8222 8678 8679 1
8223 8679 8680 1
8224 8680 8681 1
8225 8681 8682 1
8226 8682 8683 1
8227 8684 8685 1
8228 8685 8686 1
8229 8686 8687 1
8230 8687 8688 1
8231 8688 8689 1
8232 8689 8690 1
8233 8690 8691 1
8234 8691 8692 1
8235 8692 8693 1
8236 8693 8694 1
8237 8694 8695 1
8238 8695 8696 1
8239 8696 8697 1
8240 8697 8698 1
8241 8698 8699 1
8242 8699 8700 1
8243 8700 8701 1
8244 8701 8702 1
8245 8703 8704 1
8246 8704 8705 1
8247 8705 8706 1
8248 8706 8707 1
8249 8707 8708 1
8250 8708 8709 1
8251 8709 8710 1
8252 8710 8711 1
8253 8711 8712 1
8254 8712 8713 1
8255 8713 8714 1
8256 8714 8715 1
8257 8715 8716 1
8258 8716 8717 1
8259 8717 8718 1
8260 8718 8719 1
8261 8719 8720 1
8262 8720 8721 1
8263 8722 8723 1
8264 8723 8724 1
8265 8724 8725 1
8266 8725 8726 1
8267 8726 8727 1
8268 8727 8728 1
8269 8728 8729 1
8270 8729 8730 1
8271 8730 8731 1
8272 8731 8732 1
8273 8732 8733 1
8274 8733 8734 1
8275 8734 8735 1
8276 8735 8736 1
8277 8736 8737 1
8278 8737 8738 1
8279 8738 8739 1
8280 8739 8740 1
8281 8741 8742 1
8282 8742 8743 1
8283 8743 8744 1
8284 8744 8745 1
8285 8745 8746 1
8286 8746 8747 1
8287 8747 8748 1
8288 8748 8749 1
8289 8749 8750 1
8290 8750 8751 1
8291 8751 8752 1
8292 8752 8753 1
8293 8753 8754 1
8294 8754 8755 1
8295 8755 8756 1
8296 8756 8757 1
8297 8757 8758 1
8298 8758 8759 1
8299 8760 8761 1
8300 8761 8762 1
8301 8762 8763 1
8302 8763 8764 1
8303 8764 8765 1
8304 8765 8766 1
8305 8766 8767 1
8306 8767 8768 1
8307 8768 8769 1
8308 8769 8770 1
8309 8770 8771 1
8310 8771 8772 1
8311 8772 8773 1
8312 8773 8774 1
8313 8774 8775 1
8314 8775 8776 1
8315 8776 8777 1
8316 8777 8778 1
8317 8779 8780 1
8318 8780 8781 1
8319 8781 8782 1
8320 8782 8783 1
8321 8783 8784 1
8322 8784 8785 1
8323 8785 8786 1
8324 8786 8787 1
8325 8787 8788 1
8326 8788 8789 1
8327 8789 8790 1
8328 8790 8791 1
8329 8791 8792 1
8330 8792 8793 1
8331 8793 8794 1
8332 8794 8795 1
8333 8795 8796 1
8334 8796 8797 1
8335 8798 8799 1
8336 8799 8800 1
8337 8800 8801 1
8338 8801 8802 1
8339 8802 8803 1
8340 8803 8804 1
8341 8804 8805 1
8342 8805 8806 1
8343 8806 8807 1
8344 8807 8808 1
8345 8808 8809 1
8346 8809 8810 1
8347 8810 8811 1
8348 8811 8812 1
8349 8812 8813 1
8350 8813 8814 1
8351 8814 8815 1
8352 8815 8816 1
8353 8817 8818 1
8354 8818 8819 1
8355 8819 8820 1
8356 8820 8821 1
8357 8821 8822 1
8358 8822 8823 1
8359 8823 8824 1
8360 8824 8825 1
8361 8825 8826 1
8362 8826 8827 1
8363 8827 8828 1
8364 8828 8829 1
8365 8829 8830 1
8366 8830 8831 1
8367 8831 8832 1
8368 8832 8833 1
8369 8833 8834 1
8370 8834 8835 1
8371 8836 8837 1
8372 8837 8838 1
8373 8838 8839 1
8374 8839 8840 1
8375 8840 8841 1
8376 8841 8842 1
8377 8842 8843 1
8378 8843 8844 1
8379 8844 8845 1
8380 8845 8846 1
8381 8846 8847 1
8382 8847 8848 1
8383 8848 8849 1
8384 8849 8850 1
8385 8850 8851 1
8386 8851 8852 1
8387 8852 8853 1
8388 8853 8854 1
8389 8855 8856 1
8390 8856 8857 1
8391 8857 8858 1
8392 8858 8859 1
8393 8859 8860 1
8394 8860 8861 1
8395 8861 8862 1
8396 8862 8863 1
8397 8863 8864 1
8398 8864 8865 1
8399 8865 8866 1
8400 8866 8867 1
8401 8867 8868 1
8402 8868 8869 1
8403 8869 8870 1
8404 8870 8871 1
8405 8871 8872 1
8406 8872 8873 1
8407 8874 8875 1
8408 8875 8876 1
8409 8876 8877 1
8410 8877 8878 1
8411 8878 8879 1
8412 8879 8880 1
8413 8880 8881 1
8414 8881 8882 1
8415 8882 8883 1
8416 8883 8884 1
8417 8884 8885 1
8418 8885 8886 1
8419 8886 8887 1
8420 8887 8888 1
8421 8888 8889 1
8422 8889 8890 1
8423 8890 8891 1
8424 8891 8892 1
8425 8893 8894 1
8426 8894 8895 1
8427 8895 8896 1
8428 8896 8897 1
8429 8897 8898 1
8430 8898 8899 1
8431 8899 8900 1
8432 8900 8901 1
8433 8901 8902 1
8434 8902 8903 1
8435 8903 8904 1
8436 8904 8905 1
8437 8905 8906 1
8438 8906 8907 1
8439 8907 8908 1
8440 8908 8909 1
8441 8909 8910 1
8442 8910 8911 1
8443 8912 8913 1
8444 8913 8914 1
8445 8914 8915 1
8446 8915 8916 1
8447 8916 8917 1
8448 8917 8918 1
8449 8918 8919 1
8450 8919 8920 1
8451 8920 8921 1
8452 8921 8922 1
8453 8922 8923 1
8454 8923 8924 1
8455 8924 8925 1
8456 8925 8926 1
8457 8926 8927 1
8458 8927 8928 1
8459 8928 8929 1
8460 8929 8930 1
8461 8931 8932 1
8462 8932 8933 1
8463 8933 8934 1
8464 8934 8935 1
8465 8935 8936 1
8466 8936 8937 1
8467 8937 8938 1
8468 8938 8939 1
8469 8939 8940 1
8470 8940 8941 1
8471 8941 8942 1
8472 8942 8943 1
8473 8943 8944 1
8474 8944 8945 1
8475 8945 8946 1
8476 8946 8947 1
8477 8947 8948 1
8478 8948 8949 1
8479 8950 8951 1
8480 8951 8952 1
8481 8952 8953 1
8482 8953 8954 1
8483 8954 8955 1
8484 8955 8956 1
8485 8956 8957 1
8486 8957 8958 1
8487 8958 8959 1
8488 8959 8960 1
8489 8960 8961 1
8490 8961 8962 1
8491 8962 8963 1
8492 8963 8964 1
8493 8964 8965 1
8494 8965 8966 1
8495 8966 8967 1
8496 8967 8968 1
8497 8969 8970 1
8498 8970 8971 1
8499 8971 8972 1
8500 8972 8973 1
8501 8973 8974 1
8502 8974 8975 1
8503 8975 8976 1
8504 8976 8977 1
8505 8977 8978 1
8506 8978 8979 1
8507 8979 8980 1
8508 8980 8981 1
8509 8981 8982 1
8510 8982 8983 1
8511 8983 8984 1
8512 8984 8985 1
8513 8985 8986 1
8514 8986 8987 1
8515 8988 8989 1
8516 8989 8990 1
8517 8990 8991 1
8518 8991 8992 1
8519 8992 8993 1
8520 8993 8994 1
8521 8994 8995 1
8522 8995 8996 1
8523 8996 8997 1
8524 8997 8998 1
8525 8998 8999 1
8526 8999 9000 1
8527 9000 9001 1
8528 9001 9002 1
8529 9002 9003 1
8530 9003 9004 1
8531 9004 9005 1
8532 9005 9006 1
8533 9007 9008 1
8534 9008 9009 1
8535 9009 9010 1
8536 9010 9011 1
8537 9011 9012 1
8538 9012 9013 1
8539 9013 9014 1
8540 9014 9015 1
8541 9015 9016 1
8542 9016 9017 1
8543 9017 9018 1
8544 9018 9019 1
8545 9019 9020 1
8546 9020 9021 1
8547 9021 9022 1
8548 9022 9023 1
8549 9023 9024 1
8550 9024 9025 1
8551 9026 9027 1
8552 9027 9028 1
8553 9028 9029 1
8554 9029 9030 1
8555 9030 9031 1
8556 9031 9032 1
8557 9032 9033 1
8558 9033 9034 1
8559 9034 9035 1
8560 9035 9036 1
8561 9036 9037 1
8562 9037 9038 1
8563 9038 9039 1
8564 9039 9040 1
8565 9040 9041 1
8566 9041 9042 1
8567 9042 9043 1
8568 9043 9044 1
8569 9045 9046 1
8570 9046 9047 1
8571 9047 9048 1
8572 9048 9049 1
8573 9049 9050 1
8574 9050 9051 1
8575 9051 9052 1
8576 9052 9053 1
8577 9053 9054 1
8578 9054 9055 1
8579 9055 9056 1
8580 9056 9057 1
8581 9057 9058 1
8582 9058 9059 1
8583 9059 9060 1
8584 9060 9061 1
8585 9061 9062 1
8586 9062 9063 1
8587 9064 9065 1
8588 9065 9066 1
8589 9066 9067 1
8590 9067 9068 1
8591 9068 9069 1
8592 9069 9070 1
8593 9070 9071 1
8594 9071 9072 1
8595 9072 9073 1
8596 9073 9074 1
8597 9074 9075 1
8598 9075 9076 1
8599 9076 9077 1
8600 9077 9078 1
8601 9078 9079 1
8602 9079 9080 1
8603 9080 9081 1
8604 9081 9082 1
8605 9083 9084 1
8606 9084 9085 1
8607 9085 9086 1
8608 9086 9087 1
8609 9087 9088 1
8610 9088 9089 1
8611 9089 9090 1
8612 9090 9091 1
8613 9091 9092 1
8614 9092 9093 1
8615 9093 9094 1
8616 9094 9095 1
8617 9095 9096 1
8618 9096 9097 1
8619 9097 9098 1
8620 9098 9099 1
8621 9099 9100 1
8622 9100 9101 1
8623 9102 9103 1
8624 9103 9104 1
8625 9104 9105 1
8626 9105 9106 1
8627 9106 9107 1
8628 9107 9108 1
8629 9108 9109 1
8630 9109 9110 1
8631 9110 9111 1
8632 9111 9112 1
8633 9112 9113 1
8634 9113 9114 1
8635 9114 9115 1
8636 9115 9116 1
8637 9116 9117 1
8638 9117 9118 1
8639 9118 9119 1
8640 9119 9120 1
8641 9121 9122 1
8642 9122 9123 1
8643 9123 9124 1
8644 9124 9125 1
8645 9125 9126 1
8646 9126 9127 1
8647 9127 9128 1
8648 9128 9129 1
8649 9129 9130 1
8650 9130 9131 1
8651 9131 9132 1
8652 9132 9133 1
8653 9133 9134 1
8654 9134 9135 1
8655 9135 9136 1
8656 9136 9137 1
8657 9137 9138 1
8658 9138 9139 1
8659 9140 9141 1
8660 9141 9142 1
8661 9142 9143 1
8662 9143 9144 1
8663 9144 9145 1
8664 9145 9146 1
8665 9146 9147 1
8666 9147 9148 1
8667 9148 9149 1
8668 9149 9150 1
8669 9150 9151 1
8670 9151 9152 1
8671 9152 9153 1
8672 9153 9154 1
8673 9154 9155 1
8674 9155 9156 1
8675 9156 9157 1
8676 9157 9158 1
8677 9159 9160 1
8678 9160 9161 1
8679 9161 9162 1
8680 9162 9163 1
8681 9163 9164 1
8682 9164 9165 1
8683 9165 9166 1
8684 9166 9167 1
8685 9167 9168 1
8686 9168 9169 1
8687 9169 9170 1
8688 9170 9171 1
8689 9171 9172 1
8690 9172 9173 1
8691 9173 9174 1
8692 9174 9175 1
8693 9175 9176 1
8694 9176 9177 1
8695 9178 9179 1
8696 9179 9180 1
8697 9180 9181 1
8698 9181 9182 1
8699 9182 9183 1
8700 9183 9184 1
8701 9184 9185 1
8702 9185 9186 1
8703 9186 9187 1
8704 9187 9188 1
8705 9188 9189 1
8706 9189 9190 1
8707 9190 9191 1
8708 9191 9192 1
8709 9192 9193 1
8710 9193 9194 1
8711 9194 9195 1
8712 9195 9196 1
8713 9197 9198 1
8714 9198 9199 1
8715 9199 9200 1
8716 9200 9201 1
8717 9201 9202 1
8718 9202 9203 1
8719 9203 9204 1
8720 9204 9205 1
8721 9205 9206 1
8722 9206 9207 1
8723 9207 9208 1
8724 9208 9209 1
8725 9209 9210 1
8726 9210 9211 1
8727 9211 9212 1
8728 9212 9213 1
8729 9213 9214 1
8730 9214 9215 1
8731 9216 9217 1
8732 9217 9218 1
8733 9218 9219 1
8734 9219 9220 1
8735 9220 9221 1
8736 9221 9222 1
8737 9222 9223 1
8738 9223 9224 1
8739 9224 9225 1
8740 9225 9226 1
8741 9226 9227 1
8742 9227 9228 1
8743 9228 9229 1
8744 9229 9230 1
8745 9230 9231 1
8746 9231 9232 1
8747 9232 9233 1
8748 9233 9234 1
8749 9235 9236 1
8750 9236 9237 1
8751 9237 9238 1
8752 9238 9239 1
8753 9239 9240 1
8754 9240 9241 1
8755 9241 9242 1
8756 9242 9243 1
8757 9243 9244 1
8758 9244 9245 1
8759 9245 9246 1
8760 9246 9247 1
8761 9247 9248 1
8762 9248 9249 1
8763 9249 9250 1
8764 9250 9251 1
8765 9251 9252 1
8766 9252 9253 1
8767 9254 9255 1
8768 9255 9256 1
8769 9256 9257 1
8770 9257 9258 1
8771 9258 9259 1
8772 9259 9260 1
8773 9260 9261 1
8774 9261 9262 1
8775 9262 9263 1
8776 9263 9264 1
8777 9264 9265 1
8778 9265 9266 1
8779 9266 9267 1
8780 9267 9268 1
8781 9268 9269 1
8782 9269 9270 1
8783 9270 9271 1
8784 9271 9272 1
8785 9273 9274 1
8786 9274 9275 1
8787 9275 9276 1
8788 9276 9277 1
8789 9277 9278 1
8790 9278 9279 1
8791 9279 9280 1
8792 9280 9281 1
8793 9281 9282 1
8794 9282 9283 1
8795 9283 9284 1
8796 9284 9285 1
8797 9285 9286 1
8798 9286 9287 1
8799 9287 9288 1
8800 9288 9289 1
8801 9289 9290 1
8802 9290 9291 1
8803 9292 9293 1
8804 9293 9294 1
8805 9294 9295 1
8806 9295 9296 1
8807 9296 9297 1
8808 9297 9298 1
8809 9298 9299 1
8810 9299 9300 1
8811 9300 9301 1
8812 9301 9302 1
8813 9302 9303 1
8814 9303 9304 1
8815 9304 9305 1
8816 9305 9306 1
8817 9306 9307 1
8818 9307 9308 1
8819 9308 9309 1
8820 9309 9310 1
8821 9311 9312 1
8822 9312 9313 1
8823 9313 9314 1
8824 9314 9315 1
8825 9315 9316 1
8826 9316 9317 1
8827 9317 9318 1
8828 9318 9319 1
8829 9319 9320 1
8830 9320 9321 1
8831 9321 9322 1
8832 9322 9323 1
8833 9323 9324 1
8834 9324 9325 1
8835 9325 9326 1
8836 9326 9327 1
8837 9327 9328 1
8838 9328 9329 1
8839 9330 9331 1
8840 9331 9332 1
8841 9332 9333 1
8842 9333 9334 1
8843 9334 9335 1
8844 9335 9336 1
8845 9336 9337 1
8846 9337 9338 1
8847 9338 9339 1
8848 9339 9340 1
8849 9340 9341 1
8850 9341 9342 1
8851 9342 9343 1
8852 9343 9344 1
8853 9344 9345 1
8854 9345 9346 1
8855 9346 9347 1
8856 9347 9348 1
8857 9349 9350 1
8858 9350 9351 1
8859 9351 9352 1
8860 9352 9353 1
8861 9353 9354 1
8862 9354 9355 1
8863 9355 9356 1
8864 9356 9357 1
8865 9357 9358 1
8866 9358 9359 1
8867 9359 9360 1
8868 9360 9361 1
8869 9361 9362 1
8870 9362 9363 1
8871 9363 9364 1
8872 9364 9365 1
8873 9365 9366 1
8874 9366 9367 1
8875 9368 9369 1
8876 9369 9370 1
8877 9370 9371 1
8878 9371 9372 1
8879 9372 9373 1
8880 9373 9374 1
8881 9374 9375 1
8882 9375 9376 1
8883 9376 9377 1
8884 9377 9378 1
8885 9378 9379 1
8886 9379 9380 1
8887 9380 9381 1
8888 9381 9382 1
8889 9382 9383 1
8890 9383 9384 1
8891 9384 9385 1
8892 9385 9386 1
8893 9387 9388 1
8894 9388 9389 1
8895 9389 9390 1
8896 9390 9391 1
8897 9391 9392 1
8898 9392 9393 1
8899 9393 9394 1
8900 9394 9395 1
8901 9395 9396 1
8902 9396 9397 1
8903 9397 9398 1
8904 9398 9399 1
8905 9399 9400 1
8906 9400 9401 1
8907 9401 9402 1
8908 9402 9403 1
8909 9403 9404 1
8910 9404 9405 1
8911 9406 9407 1
8912 9407 9408 1
8913 9408 9409 1
8914 9409 9410 1
8915 9410 9411 1
8916 9411 9412 1
8917 9412 9413 1
8918 9413 9414 1
8919 9414 9415 1
8920 9415 9416 1
8921 9416 9417 1
8922 9417 9418 1
8923 9418 9419 1
8924 9419 9420 1
8925 9420 9421 1
8926 9421 9422 1
8927 9422 9423 1
8928 9423 9424 1
8929 9425 9426 1
8930 9426 9427 1
8931 9427 9428 1
8932 9428 9429 1
8933 9429 9430 1
8934 9430 9431 1
8935 9431 9432 1
8936 9432 9433 1
8937 9433 9434 1
8938 9434 9435 1
8939 9435 9436 1
8940 9436 9437 1
8941 9437 9438 1
8942 9438 9439 1
8943 9439 9440 1
8944 9440 9441 1
8945 9441 9442 1
8946 9442 9443 1
8947 9444 9445 1
8948 9445 9446 1
8949 9446 9447 1
8950 9447 9448 1
8951 9448 9449 1
8952 9449 9450 1
8953 9450 9451 1
8954 9451 9452 1
8955 9452 9453 1
8956 9453 9454 1
8957 9454 9455 1
8958 9455 9456 1
8959 9456 9457 1
8960 9457 9458 1
8961 9458 9459 1
8962 9459 9460 1
8963 9460 9461 1
8964 9461 9462 1
8965 9463 9464 1
8966 9464 9465 1
8967 9465 9466 1
8968 9466 9467 1
8969 9467 9468 1
8970 9468 9469 1
8971 9469 9470 1
8972 9470 9471 1
8973 9471 9472 1
8974 9472 9473 1
8975 9473 9474 1
8976 9474 9475 1
8977 9475 9476 1
8978 9476 9477 1
8979 9477 9478 1
8980 9478 9479 1
8981 9479 9480 1
8982 9480 9481 1
8983 9482 9483 1
8984 9483 9484 1
8985 9484 9485 1
8986 9485 9486 1
8987 9486 9487 1
8988 9487 9488 1
8989 9488 9489 1
8990 9489 9490 1
8991 9490 9491 1
8992 9491 9492 1
8993 9492 9493 1
8994 9493 9494 1
8995 9494 9495 1
8996 9495 9496 1
8997 9496 9497 1
8998 9497 9498 1
8999 9498 9499 1
9000 9499 9500 1
