@<TRIPOS>MOLECULE
500 polymers at 8 percent
9500 9000
NO_CHARGES
@<TRIPOS>ATOM
1 A 3.943529 4.884501 12.317140 A
2 A 3.985539 5.450660 13.107670 A
3 A 3.521055 6.212838 13.516340 A
4 A 2.790756 6.793606 13.660430 A
5 A 1.982595 7.293490 13.812680 A
6 A 1.151048 7.289750 14.288660 A
7 B 0.799551 7.345120 15.208170 B
8 B 1.756252 7.277668 15.417980 B
9 B 2.669483 7.439001 15.182460 B
10 B 3.446791 7.162193 15.622950 B
11 B 3.906084 7.946826 15.925400 B
12 B 4.394017 8.326065 16.687720 B
13 B 5.309602 8.424403 16.549570 B
14 A 5.061517 9.068697 15.899420 A
15 A 5.138906 9.869662 15.414220 A
16 A 5.758335 9.632259 14.776300 A
17 A 6.276915 9.463831 13.963520 A
18 A 7.037540 8.922577 13.720590 A
19 A 6.460313 8.333332 14.130690 A
20 A 21.982740 11.313880 -6.871219 A
21 A 21.385520 11.862970 -6.303708 A
22 A 20.647980 12.410040 -5.967233 A
23 A 20.213120 13.168330 -5.645845 A
24 A 19.945290 14.054400 -5.388840 A
25 A 19.948230 14.938260 -5.084269 A
26 B 20.882930 15.112600 -5.139095 B
27 B 21.811410 15.341750 -5.242641 B
28 B 22.173190 15.615410 -4.387085 B
29 B 21.650220 15.479070 -3.591027 B
30 B 20.918240 14.953760 -3.241534 B
31 B 20.413670 14.169560 -3.036868 B
32 B 20.291640 13.208880 -3.180511 B
33 A 21.237820 13.375850 -3.086567 A
34 A 22.195320 13.434140 -3.128611 A
35 A 22.756090 14.171510 -3.269476 A
36 A 22.835240 15.043720 -3.629109 A
37 A 23.103440 15.973940 -3.830412 A
38 A 22.669210 16.695470 -4.307551 A
39 A -19.111170 -2.281239 -13.766090 A
40 A -19.561570 -1.926977 -13.020200 A
41 A -20.304290 -1.407637 -12.757630 A
42 A -20.809920 -0.827153 -13.389520 A
43 A -21.046870 -0.622046 -14.284790 A
44 A -21.386640 -1.373234 -14.806250 A
45 B -21.377100 -2.344771 -14.874020 B
46 B -21.670400 -3.250316 -14.996770 B
47 B -22.023070 -3.914821 -15.611270 B
48 B -22.404670 -3.487949 -16.374590 B
49 B -22.678060 -2.706534 -16.845640 B
50 B -23.227190 -1.900820 -16.844490 B
51 B -24.019080 -1.323258 -16.850980 B
52 A -24.653680 -0.903073 -17.416770 A
53 A 24.571120 -0.240597 -17.525280 A
54 A 23.988560 0.476968 -17.276320 A
55 A 23.427340 0.769106 -16.543820 A
56 A 22.994980 1.408231 -15.972110 A
57 A 22.359300 1.864661 -15.404450 A
58 A 9.231626 -18.672550 3.562938 A
59 A 9.003937 -18.426610 4.444826 A
60 A 9.091255 -18.185290 5.346030 A
61 A 9.362422 -18.802580 6.009878 A
62 A 9.073444 -19.312470 6.716945 A
63 A 8.272865 -19.319820 7.215991 A
64 B 7.518154 -19.824460 7.537232 B
65 B 6.849686 -20.363450 7.142911 B
66 B 6.581347 -20.627150 6.269098 B
67 B 6.644991 -21.368850 5.646291 B
68 B 7.187353 -21.708270 4.898719 B
69 B 6.992278 -22.093280 4.039407 B
70 B 6.377174 -22.541530 3.372859 B
71 A 5.565256 -22.755080 3.833694 A
72 A 5.162830 -22.928480 4.700230 A
73 A 5.492776 -23.737260 5.128844 A
74 A 6.000006 -24.540260 5.224454 A
75 A 6.616271 24.615480 5.270935 A
76 A 7.336225 23.980090 5.018614 A
77 A -1.387148 6.388085 -16.143140 A
78 A -1.274683 5.372664 -16.021870 A
79 A -1.216978 4.424253 -16.056450 A
80 A -1.117433 4.380676 -17.010480 A
81 A -1.055839 4.924380 -17.827600 A
82 A -1.245739 5.506794 -18.571760 A
83 B -1.173414 6.407918 -18.841610 B
84 B -0.702940 7.163869 -18.556050 B
85 B 0.012009 7.322484 -17.904950 B
86 B -0.246133 7.862573 -17.177560 B
87 B -0.950447 8.490108 -17.047080 B
88 B -1.764697 8.907817 -17.403560 B
89 B -2.217465 9.472000 -18.043550 B
90 A -1.638407 8.818376 -18.519520 A
91 A -0.753288 8.473652 -18.156350 A
92 A 0.197118 8.520006 -18.189120 A
93 A 0.586472 9.360883 -18.379060 A
94 A 1.036461 9.830656 -19.116200 A
95 A 0.916452 9.767954 -20.068690 A
96 A -8.343689 1.874308 -6.853571 A
97 A -8.906362 1.128277 -6.552415 A
98 A -9.520081 0.710036 -5.969387 A
99 A -10.124960 0.049713 -5.642974 A
100 A -10.651410 -0.548052 -5.146097 A
101 A -11.143450 -1.033420 -4.443231 A
102 B -11.500650 -1.627713 -3.814487 B
103 B -12.284210 -1.924644 -3.306387 B
104 B -13.049380 -2.473092 -3.282893 B
105 B -13.697950 -2.910031 -3.861745 B
106 B -14.467240 -2.838046 -4.459076 B
107 B -15.054240 -2.119976 -4.669766 B
108 B -15.444780 -1.431965 -4.116813 B
109 A -15.755060 -0.570389 -3.802132 A
110 A -16.473080 0.065281 -4.068474 A
111 A -17.337510 0.220631 -4.535682 A
112 A -18.278560 0.308148 -4.674420 A
113 A -19.142240 -0.069631 -4.396276 A
114 A -19.916170 -0.019541 -3.807385 A
115 A -5.449704 -18.956040 -17.561960 A
116 A -4.974700 -18.943920 -18.390850 A
117 A -4.324882 -18.696880 -18.998950 A
118 A -3.736675 -18.212180 -19.561000 A
119 A -3.253842 -17.447710 -19.282620 A
120 A -3.290585 -16.708530 -18.661580 A
121 B -4.021295 -16.131120 -18.563850 B
122 B -4.671535 -16.837400 -18.524390 B
123 B -5.312852 -17.395020 -19.013700 B
124 B -5.387647 -17.912790 -19.820920 B
125 B -6.034085 -18.646270 -19.797650 B
126 B -6.811107 -18.774300 -19.196670 B
127 B -7.863360 -18.839340 -19.145760 B
128 A -8.506031 -18.230850 -19.441370 A
129 A -8.053203 -17.492680 -19.820090 A
130 A -8.920519 -17.161610 -20.081760 A
131 A -8.848133 -16.395990 -19.618400 A
132 A -9.623689 -15.932550 -19.294390 A
133 A -10.093620 -16.472050 -18.713940 A
134 A -10.778900 -4.739496 4.455285 A
135 A -10.161500 -4.029899 4.519019 A
136 A -9.610424 -3.315312 4.178186 A
137 A -9.668509 -3.582431 3.282472 A
138 A -10.166080 -3.869170 2.522881 A
139 A -10.819800 -3.940439 1.846696 A
140 B -11.672270 -3.911829 1.447376 B
141 B -12.553740 -3.856878 1.045695 B
142 B -13.244620 -3.192580 1.120925 B
143 B -13.093040 -2.994140 2.029148 B
144 B -12.748130 -3.751445 2.506396 B
145 B -12.827820 -4.586744 2.068366 B
146 B -12.858350 -5.233874 1.369461 B
147 A -13.747380 -5.675561 1.227898 A
148 A -13.617720 -6.603273 1.261135 A
149 A -13.632250 -6.712159 2.198917 A
150 A -13.007180 -6.701755 2.909868 A
151 A -12.111220 -6.448947 2.950644 A
152 A -11.420680 -5.735806 3.167138 A
153 A 7.202633 23.339140 -0.187263 A
154 A 6.609560 23.547220 0.587968 A
155 A 6.978394 23.420880 1.462971 A
156 A 6.588096 23.673470 2.282632 A
157 A 6.778724 23.442270 3.195507 A
158 A 7.706011 23.442800 3.558492 A
159 B 8.650461 23.264100 3.302927 B
160 B 9.021851 23.114580 2.442098 B
161 B 9.469898 22.566560 1.821218 B
162 B 10.436120 22.657560 1.852740 B
163 B 10.537670 23.072190 2.722201 B
164 B 10.172520 23.586660 3.429323 B
165 B 9.427035 23.882910 3.878968 B
166 A 9.030028 23.658120 4.702297 A
167 A 8.756927 22.967160 5.342461 A
168 A 8.290954 22.343920 5.940384 A
169 A 8.232607 21.619360 6.608559 A
170 A 8.364453 20.682130 6.881086 A
171 A 8.296609 20.013410 7.643996 A
172 A -13.733630 9.307210 -15.414260 A
173 A -14.456850 9.678896 -14.828710 A
174 A -15.306930 9.788589 -14.396140 A
175 A -15.995770 10.269650 -13.923190 A
176 A -16.609200 10.908240 -13.536280 A
177 A -17.252720 11.298320 -12.926000 A
178 B -18.025210 11.609290 -12.472060 B
179 B -18.184460 11.614280 -11.544750 B
180 B -17.369160 12.153650 -11.421300 B
181 B -16.625090 12.737140 -11.418970 B
182 B -15.844380 13.302030 -11.323440 B
183 B -15.089340 13.751800 -10.951160 B
184 B -14.911610 14.569480 -10.438410 B
185 A -14.622360 15.399090 -10.002920 A
186 A -14.152920 15.850270 -9.324681 A
187 A -13.348900 15.966260 -8.839101 A
188 A -12.477530 16.013800 -9.245688 A
189 A -12.017970 15.909300 -10.077030 A
190 A -11.621950 15.236960 -10.684590 A
191 A -19.166680 -22.022580 -18.358370 A
192 A -18.308920 -22.367500 -18.124740 A
193 A -17.538520 -22.341020 -17.535290 A
194 A -16.935960 -21.940450 -16.882270 A
195 A -16.435210 -21.723800 -16.100540 A
196 A -15.724640 -21.355570 -15.574160 A
197 B -15.279270 -20.782050 -14.972670 B
198 B -14.507660 -20.233390 -15.226260 B
199 B -14.455290 -20.251110 -16.206810 B
200 B -14.944160 -20.156210 -17.056250 B
201 B -15.159740 -19.551270 -17.755900 B
202 B -15.718880 -19.080800 -18.408330 B
203 B -15.630590 -18.554060 -19.209680 B
204 A -14.984290 -18.319310 -19.876170 A
205 A -14.297570 -18.923380 -20.243520 A
206 A -13.824690 -19.740070 -20.034930 A
207 A -14.252400 -20.103050 -19.305970 A
208 A -13.554980 -19.600600 -18.931390 A
209 A -12.946020 -18.921950 -18.711660 A
210 A 11.416790 -7.838031 14.531910 A
211 A 12.276050 -8.249254 14.644140 A
212 A 13.199610 -8.153710 14.670280 A
213 A 13.746210 -8.707194 15.148970 A
214 A 13.423930 -9.585066 14.953880 A
215 A 13.122400 -10.408170 14.556430 A
216 B 13.090700 -11.274770 14.055970 B
217 B 13.092500 -12.135650 13.629330 B
218 B 13.908200 -12.387410 13.209060 B
219 B 14.399900 -12.665900 12.410470 B
220 B 15.019040 -12.433300 11.664180 B
221 B 15.109740 -12.084590 10.735970 B
222 B 15.501670 -12.323250 9.897168 B
223 A 16.056290 -11.976980 9.263989 A
224 A 16.094610 -11.934290 8.297254 A
225 A 15.210040 -11.860830 7.898833 A
226 A 14.405730 -11.384710 8.136916 A
227 A 14.519580 -10.626490 8.699435 A
228 A 14.934420 -9.913028 9.204430 A
229 A 8.350373 -16.361830 6.003485 A
230 A 8.955790 -17.089000 6.189406 A
231 A 9.209312 -17.837640 6.704107 A
232 A 9.209537 -18.120140 7.623638 A
233 A 9.636946 -18.027080 8.523830 A
234 A 9.534530 -17.348510 9.230193 A
235 B 9.439687 -16.450180 8.809984 B
236 B 9.881955 -15.657920 9.209778 B
237 B 9.357290 -14.849660 9.058279 B
238 B 8.798321 -14.035880 8.900481 B
239 B 7.944260 -14.241990 8.542110 B
240 B 7.108651 -14.280220 8.030151 B
241 B 6.859058 -14.609350 7.118560 B
242 A 7.039147 -14.659350 6.198280 A
243 A 7.440350 -14.756260 5.325478 A
244 A 7.976934 -14.854770 4.559629 A
245 A 8.652997 -15.111150 3.943266 A
246 A 9.569308 -15.405570 4.091995 A
247 A 10.321360 -16.025530 4.095012 A
248 A 7.388065 21.689020 4.410482 A
249 A 7.397597 22.433190 5.019487 A
250 A 7.120430 22.948920 5.810226 A
251 A 7.049738 23.882260 6.027153 A
252 A 7.271390 24.826710 6.215000 A
253 A 7.799712 -24.821830 6.963480 A
254 B 8.038126 -24.675400 7.877358 B
255 B 8.747732 24.773250 8.283175 B
256 B 9.619753 24.550560 8.669429 B
257 B 10.260620 24.678850 9.405804 B
258 B 10.453550 24.913650 10.351760 B
259 B 10.315050 -24.353180 11.018830 B
260 B 10.222810 -23.522100 11.433790 B
261 A 10.449970 -22.592880 11.262620 A
262 A 10.987600 -21.870700 10.971460 A
263 A 11.492570 -21.222330 10.507890 A
264 A 10.716810 -21.043150 9.974973 A
265 A 10.486410 -20.335350 9.425280 A
266 A 9.846683 -19.633540 9.189564 A
267 A 5.680722 -1.457035 13.079240 A
268 A 5.814167 -0.507739 13.294590 A
269 A 5.639037 0.342070 13.711620 A
270 A 6.327269 0.976105 13.831570 A
271 A 7.248766 0.890409 14.043580 A
272 A 8.030255 1.397248 13.756110 A
273 B 8.360413 0.947356 12.971850 B
274 B 8.493475 1.317471 12.094250 B
275 B 8.563008 1.518460 11.177480 B
276 B 8.634779 2.175404 10.489540 B
277 B 8.814947 2.706760 9.710199 B
278 B 8.460609 2.735339 8.823020 B
279 B 7.838778 2.111093 8.471233 B
280 A 6.878679 1.976935 8.417764 A
281 A 6.680932 1.072888 8.303798 A
282 A 7.040423 0.207173 8.035909 A
283 A 7.891508 0.078833 7.597503 A
284 A 8.693905 -0.392407 7.697847 A
285 A 9.530387 -0.190578 7.218754 A
286 A 1.231338 -13.855400 3.013232 A
287 A 0.475057 -13.339820 2.756021 A
288 A 0.072034 -12.583260 2.359769 A
289 A 0.006151 -11.659650 2.018440 A
290 A 0.437930 -10.943010 1.523135 A
291 A 1.071660 -10.370940 1.892176 A
292 B 1.893035 -10.001010 2.269661 B
293 B 2.733092 -9.536527 2.034704 B
294 B 3.032055 -9.153530 1.248436 B
295 B 3.340464 -8.837238 0.375871 B
296 B 3.503984 -7.974586 0.029659 B
297 B 4.317615 -7.817740 -0.492605 B
298 B 4.753150 -8.313334 -1.171315 B
299 A 4.926147 -9.279696 -1.200649 A
300 A 4.828951 -9.861074 -0.448850 A
301 A 5.581671 -10.161950 0.062905 A
302 A 6.330493 -9.704269 0.457173 A
303 A 7.096587 -9.147647 0.370275 A
304 A 7.649585 -8.411314 0.333186 A
305 A 14.754320 19.114780 3.716176 A
306 A 14.165440 18.445530 3.515118 A
307 A 14.331370 17.604070 3.108072 A
308 A 14.040260 16.784420 2.710011 A
309 A 13.866690 15.911840 2.541706 A
310 A 13.366540 15.297980 3.141113 A
311 B 13.560110 14.897550 3.984658 B
312 B 14.190630 14.404160 4.500670 B
313 B 14.400950 14.556720 5.471702 B
314 B 14.975740 14.245860 6.206504 B
315 B 15.793150 14.470350 6.708606 B
316 B 16.513680 15.082270 6.882867 B
317 B 15.850100 15.766710 6.979434 B
318 A 15.455810 16.593340 6.617384 A
319 A 15.005440 16.802410 5.784711 A
320 A 14.107590 16.437230 5.480149 A
321 A 13.231820 16.079110 5.222249 A
322 A 12.353540 15.676440 5.427506 A
323 A 11.552430 15.253720 5.634022 A
324 A -0.535656 8.023462 22.702470 A
325 A -0.339555 8.061925 21.727160 A
326 A 0.070432 7.746133 20.922370 A
327 A -0.037762 8.513605 20.310010 A
328 A 0.590690 9.108757 20.550360 A
329 A 0.574610 9.931964 19.999230 A
330 B 0.238432 10.014840 19.061720 B
331 B -0.557930 10.199410 18.482950 B
332 B -0.808385 9.916481 17.510940 B
333 B -0.327095 9.091678 17.616930 B
334 B -0.181076 8.198951 17.958890 B
335 B -0.993420 8.217924 17.501640 B
336 B -1.854820 8.527082 17.748050 B
337 A -2.252949 9.379147 17.807620 A
338 A -1.897763 10.088760 17.308670 A
339 A -1.555990 10.651750 16.620940 A
340 A -1.901744 11.404850 15.999690 A
341 A -2.682302 11.908810 16.273410 A
342 A -2.577475 12.862030 15.954790 A
343 A -4.662094 -2.772937 24.350490 A
344 A -3.808571 -2.640409 23.904310 A
345 A -2.910089 -2.404058 23.968630 A
346 A -2.240527 -2.979226 24.319000 A
347 A -1.693369 -3.718203 24.658370 A
348 A -0.719853 -3.810965 24.481150 A
349 B 0.048565 -3.952314 23.975010 B
350 B 0.885679 -3.950349 23.471230 B
351 B 1.430939 -3.962035 22.701400 B
352 B 0.729073 -4.448066 22.395780 B
353 B 0.409056 -5.021908 23.136500 B
354 B 0.478675 -5.371004 24.050600 B
355 B 0.483839 -5.914584 24.821780 B
356 A 0.137390 -6.428358 -24.354800 A
357 A -0.405486 -6.840231 -23.699860 A
358 A -0.729290 -7.443115 -22.989280 A
359 A -0.738726 -8.053240 -22.254290 A
360 A -1.235634 -8.621282 -21.646660 A
361 A -1.759715 -9.203327 -21.065260 A
362 A -4.787328 -4.683072 17.132680 A
363 A -4.412217 -4.461561 16.266800 A
364 A -4.132514 -3.735256 15.722190 A
365 A -4.127578 -3.715628 14.761090 A
366 A -4.300038 -4.052398 13.845980 A
367 A -4.968948 -4.015966 13.147910 A
368 B -4.902201 -4.143282 12.226000 B
369 B -5.191208 -4.535892 11.431470 B
370 B -5.575783 -4.441722 10.545620 B
371 B -5.847869 -3.639438 10.139230 B
372 B -5.812231 -2.689047 9.906158 B
373 B -5.220970 -2.012028 9.638165 B
374 B -4.829582 -2.345958 8.841760 B
375 A -5.308657 -2.807056 8.140013 A
376 A -6.213933 -3.058873 7.931130 A
377 A -7.206744 -2.995319 7.934954 A
378 A -7.914704 -2.346686 8.015970 A
379 A -7.673556 -1.447524 7.823644 A
380 A -7.962321 -0.585852 8.087377 A
381 A -14.683130 7.065947 17.496910 A
382 A -14.019080 7.126488 18.226110 A
383 A -13.288570 7.586203 18.702250 A
384 A -12.641840 7.928695 19.332510 A
385 A -11.941880 7.459789 19.799060 A
386 A -11.244770 6.879681 20.104890 A
387 B -10.699850 6.037079 19.858800 B
388 B -10.141360 5.865016 19.086450 B
389 B -9.201833 6.054669 18.951320 B
390 B -8.696197 6.832643 18.622330 B
391 B -9.494935 7.373422 18.580410 B
392 B -10.332060 7.796632 18.335290 B
393 B -10.984380 8.494182 18.332320 B
394 A -10.908710 9.382265 17.995950 A
395 A -10.151740 9.905114 17.720140 A
396 A -9.505114 10.514800 17.329210 A
397 A -9.122078 10.781280 16.462460 A
398 A -9.104954 11.158710 15.566630 A
399 A -8.801645 11.369890 14.705570 A
400 A 5.858815 18.848310 -6.945163 A
401 A 5.967011 18.909380 -7.947443 A
402 A 5.691193 18.118760 -8.513363 A
403 A 5.541701 17.333010 -9.073076 A
404 A 5.211893 16.485770 -9.385285 A
405 A 5.537730 15.585280 -9.072452 A
406 B 6.041869 15.540000 -8.258742 B
407 B 6.045332 15.824640 -7.403203 B
408 B 6.186247 16.764470 -7.347025 B
409 B 7.009063 17.051540 -6.988199 B
410 B 7.939653 17.184010 -6.923502 B
411 B 8.689822 17.396520 -7.429936 B
412 B 9.284214 17.527300 -8.120692 B
413 A 10.063490 17.683050 -8.665932 A
414 A 10.947990 17.353210 -8.814703 A
415 A 10.731640 16.614700 -9.421567 A
416 A 9.772269 16.849060 -9.596403 A
417 A 9.409011 17.572940 -10.197720 A
418 A 8.953965 17.764140 -11.045420 A
419 A 7.337162 20.622890 15.850940 A
420 A 7.723351 20.140640 15.131030 A
421 A 8.683648 20.210000 15.104790 A
422 A 9.535142 20.242620 14.676250 A
423 A 9.746605 20.495670 13.745810 A
424 A 10.140950 20.576520 12.813160 A
425 B 9.758014 20.736900 11.917040 B
426 B 8.745410 20.805830 11.927410 B
427 B 7.925618 20.221000 11.894580 B
428 B 7.010675 20.044800 11.677030 B
429 B 6.651610 20.747410 11.179620 B
430 B 5.951629 20.163940 10.760510 B
431 B 5.730391 19.216190 10.939560 B
432 A 5.550526 19.228080 11.916190 A
433 A 4.679498 19.617300 11.991150 A
434 A 3.957642 20.160900 11.733600 A
435 A 3.713719 21.048960 11.477330 A
436 A 4.008349 21.889620 11.260030 A
437 A 3.875635 22.280630 10.493660 A
438 A 16.551050 8.155279 -9.206847 A
439 A 16.604400 7.444097 -8.619256 A
440 A 16.958050 6.908202 -7.873019 A
441 A 17.390940 6.572885 -7.124492 A
442 A 17.726740 6.047052 -6.427383 A
443 A 18.201310 5.506571 -5.829060 A
444 B 19.037690 5.141276 -5.500402 B
445 B 19.895770 5.051705 -4.981846 B
446 B 20.898530 5.031682 -4.873040 B
447 B 20.624890 5.831528 -5.290173 B
448 B 20.442300 6.659899 -5.767200 B
449 B 19.747200 6.574093 -6.406535 B
450 B 18.852080 6.893695 -6.329281 B
451 A 18.395910 7.689601 -6.633779 A
452 A 17.421980 7.816356 -6.634350 A
453 A 16.531380 7.882914 -6.289830 A
454 A 16.100990 8.245759 -5.526146 A
455 A 16.316980 9.110059 -5.134184 A
456 A 16.218890 10.061850 -5.279030 A
457 A 23.351840 -17.244900 21.116620 A
458 A 23.645500 -18.091190 21.527680 A
459 A 23.368550 -18.992510 21.716200 A
460 A 23.111990 -19.747910 22.253160 A
461 A 22.467620 -20.306190 22.690390 A
462 A 21.550030 -20.538830 22.673480 A
463 B 21.146640 -19.668230 22.745280 B
464 B 21.381260 -18.787250 23.044500 B
465 B 21.813140 -17.950840 23.300330 B
466 B 22.570140 -17.368560 23.409420 B
467 B 23.120150 -16.705210 23.880110 B
468 B 23.831830 -16.339990 24.393600 B
469 B 24.477720 -17.034120 24.543190 B
470 A 24.920130 -17.902520 24.554070 A
471 A -24.422760 -18.532610 24.953330 A
472 A -23.652180 -17.956710 -24.609440 A
473 A -22.969630 -17.295560 -24.703750 A
474 A -22.381910 -16.505560 -24.510050 A
475 A -22.111220 -15.587210 -24.670230 A
476 A 23.566230 18.958520 -16.146920 A
477 A 24.141490 19.743620 -15.915100 A
478 A 24.271990 20.648550 -15.569660 A
479 A 24.181760 21.459420 -15.021430 A
480 A 23.691480 22.198660 -14.674680 A
481 A 23.478570 22.950710 -14.150670 A
482 B 23.431480 23.799020 -13.714600 B
483 B 22.593600 24.234170 -13.853020 B
484 B 22.041310 23.581230 -14.276810 B
485 B 21.502240 22.866290 -14.636690 B
486 B 20.956360 22.363750 -15.257610 B
487 B 21.216620 23.089840 -15.791590 B
488 B 21.536850 23.517030 -16.588660 B
489 A 21.767110 22.962550 -17.338960 A
490 A 21.414590 22.222640 -17.932860 A
491 A 20.509910 22.161600 -18.345840 A
492 A 20.323670 22.966840 -18.783030 A
493 A 21.045770 23.022660 -19.445420 A
494 A 21.807360 22.990410 -20.064470 A
495 A -13.950110 21.525660 16.675420 A
496 A -14.050320 22.178520 16.011940 A
497 A -14.169600 23.116920 15.753360 A
498 A -14.553190 23.887850 15.341720 A
499 A -14.881340 23.314360 14.583060 A
500 A -15.666330 22.786450 14.416440 A
501 B -16.393200 22.145730 14.297680 B
502 B -16.844190 21.486610 13.696610 B
503 B -16.289950 20.677240 13.700290 B
504 B -15.542750 20.039050 13.666040 B
505 B -14.562980 20.107230 13.781800 B
506 B -13.628190 20.054650 13.845960 B
507 B -12.854030 20.453040 13.498420 B
508 A -12.055640 20.971130 13.582230 A
509 A -11.342640 21.558330 13.612850 A
510 A -10.742730 21.903600 14.313730 A
511 A -10.125120 22.650410 14.351480 A
512 A -9.405733 23.230160 13.938650 A
513 A -9.224976 23.396440 13.003900 A
514 A 21.216160 21.751160 -5.313372 A
515 A 20.949630 22.037510 -4.354583 A
516 A 20.376630 22.256000 -3.628998 A
517 A 19.862890 22.866660 -3.035371 A
518 A 18.950530 22.638430 -3.217305 A
519 A 18.669660 22.327580 -2.403701 A
520 B 17.932510 22.597920 -1.903747 B
521 B 17.521970 21.964390 -1.091170 B
522 B 16.962260 21.314080 -1.570341 B
523 B 17.004970 20.299810 -1.229239 B
524 B 17.840480 20.467940 -1.605122 B
525 B 18.759490 20.306990 -1.931371 B
526 B 19.075560 20.236820 -2.878119 B
527 A 18.709440 19.577340 -3.567164 A
528 A 17.926680 19.927090 -3.131748 A
529 A 17.057170 20.269100 -3.266815 A
530 A 16.382740 20.730970 -3.778329 A
531 A 16.061410 21.468650 -4.314312 A
532 A 15.824480 22.443200 -4.206057 A
533 A 20.738600 7.119660 -16.164810 A
534 A 20.709450 7.801842 -16.859700 A
535 A 20.670220 8.593957 -17.458040 A
536 A 19.884710 9.121741 -17.595620 A
537 A 19.343800 9.257935 -16.821160 A
538 A 18.770100 8.780522 -16.220560 A
539 B 18.810730 7.802900 -16.388480 B
540 B 19.079380 6.925250 -16.770140 B
541 B 19.324380 6.058854 -16.485970 B
542 B 18.665620 5.538904 -16.959020 B
543 B 18.760450 5.342561 -17.854200 B
544 B 18.418570 6.165069 -18.074550 B
545 B 18.900730 6.969162 -18.462320 B
546 A 18.588930 7.741090 -19.006670 A
547 A 18.061070 8.581419 -19.192290 A
548 A 17.680460 9.066201 -19.873870 A
549 A 17.793250 8.506763 -20.619630 A
550 A 16.885280 8.821936 -20.544120 A
551 A 15.954240 8.592357 -20.622500 A
552 A 14.577650 -22.845270 8.104816 A
553 A 13.596590 -23.063140 7.952090 A
554 A 12.793290 -23.518930 7.579628 A
555 A 12.144530 -24.245070 7.443723 A
556 A 12.500990 -24.293600 6.563504 A
557 A 13.161050 -24.068860 5.892037 A
558 B 13.769970 -24.013800 5.138775 B
559 B 14.381810 -24.407080 4.490170 B
560 B 14.692540 -23.647110 3.993876 B
561 B 14.940170 -22.750630 4.258743 B
562 B 15.721200 -22.423350 4.699146 B
563 B 16.127330 -22.363680 5.525499 B
564 B 16.292260 -22.430080 6.444288 B
565 A 16.541880 -23.092280 7.052643 A
566 A 16.178850 -23.967540 7.123440 A
567 A 15.654000 -24.609050 7.626641 A
568 A 14.925220 -24.911140 8.167281 A
569 A 14.349500 24.280050 8.411808 A
570 A 13.521660 24.355310 8.883887 A
571 A -8.464663 -21.449840 17.081160 A
572 A -8.706108 -20.832130 17.724240 A
573 A -8.685515 -20.679620 18.665900 A
574 A -8.879488 -20.963980 19.601420 A
575 A -8.383978 -20.876170 20.408090 A
576 A -8.208901 -20.969870 21.363030 A
577 B -8.317339 -20.956210 22.339460 B
578 B -9.236345 -20.943210 22.715460 B
579 B -9.958186 -20.332210 22.649010 B
580 B -10.374350 -19.622680 22.127780 B
581 B -10.882300 -18.927560 21.636100 B
582 B -11.289400 -18.798380 20.781640 B
583 B -11.702360 -18.404420 20.028660 B
584 A -11.594630 -17.458240 19.735130 A
585 A -11.326570 -16.533640 20.001520 A
586 A -11.105300 -15.710930 20.425660 A
587 A -11.051520 -14.836870 20.058080 A
588 A -11.594600 -14.422120 19.360670 A
589 A -11.846100 -14.200400 18.485170 A
590 A 18.883920 7.953098 -4.472392 A
591 A 18.142310 8.549584 -3.809182 A
592 A 17.943670 9.240638 -4.565112 A
593 A 18.189530 9.224414 -5.438912 A
594 A 17.794170 9.093328 -6.243632 A
595 A 18.570480 9.582164 -6.539830 A
596 B 18.382970 9.589215 -7.519918 B
597 B 18.540340 8.715189 -8.024467 B
598 B 18.319060 7.915424 -8.571539 B
599 B 18.465460 7.219891 -9.208088 B
600 B 17.784480 6.590381 -9.401877 B
601 B 17.190890 6.284186 -10.106150 B
602 B 16.612510 7.042376 -10.150790 B
603 A 15.926300 7.698185 -10.148100 A
604 A 15.328210 7.892268 -9.439545 A
605 A 14.788850 8.552321 -8.962382 A
606 A 14.806310 9.241247 -9.658858 A
607 A 14.818610 9.810612 -10.464550 A
608 A 14.997290 10.342660 -11.201570 A
609 A -21.228240 -16.348590 14.891520 A
610 A -20.905250 -15.808330 14.203180 A
611 A -20.497280 -15.043360 13.780120 A
612 A -20.025130 -15.498430 13.081420 A
613 A -19.458910 -15.965870 12.459440 A
614 A -19.162980 -16.864620 12.508040 A
615 B -18.376040 -17.429150 12.584640 B
616 B -17.896840 -17.694260 13.354610 B
617 B -17.260100 -17.068280 13.801940 B
618 B -16.993730 -16.270270 14.318660 B
619 B -17.041190 -15.578240 13.658320 B
620 B -16.505590 -14.986910 14.164380 B
621 B -16.304670 -14.341460 14.896770 B
622 A -15.838240 -13.531120 15.276840 A
623 A -15.307740 -13.012560 14.677710 A
624 A -15.318460 -12.619770 13.780960 A
625 A -15.551480 -11.927730 13.152860 A
626 A -16.153010 -11.212640 13.303270 A
627 A -16.730270 -10.586060 13.741710 A
628 A 11.767940 -16.818080 4.634693 A
629 A 11.996830 -16.233770 5.335141 A
630 A 11.912830 -15.471840 5.972863 A
631 A 12.239210 -14.755940 6.502486 A
632 A 12.128760 -14.433040 7.328777 A
633 A 11.466080 -13.958030 7.803813 A
634 B 11.421410 -13.286890 7.126743 B
635 B 11.910930 -12.599680 6.722257 B
636 B 11.052120 -12.071390 6.624212 B
637 B 10.777090 -12.430740 5.824463 B
638 B 11.439470 -12.323590 5.102395 B
639 B 11.789490 -13.359000 5.286569 B
640 B 11.438200 -14.302380 5.361256 B
641 A 10.921190 -13.542580 4.995234 A
642 A 10.191440 -13.421570 4.372634 A
643 A 10.152300 -13.000900 3.510546 A
644 A 10.887040 -12.867440 2.877607 A
645 A 11.311880 -13.553630 3.454485 A
646 A 11.585430 -14.184410 2.834762 A
647 A 13.387440 23.218380 -17.612780 A
648 A 12.504540 23.329160 -17.950700 A
649 A 11.610750 23.078030 -18.003060 A
650 A 11.270640 22.188830 -18.247940 A
651 A 11.555610 21.216310 -18.165560 A
652 A 12.357040 21.548540 -17.768310 A
653 B 13.186090 21.840910 -17.384370 B
654 B 12.723000 21.660730 -16.565710 B
655 B 12.785380 20.690590 -16.511120 B
656 B 12.808710 19.847340 -16.951350 B
657 B 13.264370 19.712090 -17.816540 B
658 B 13.816020 19.622360 -18.596600 B
659 B 14.536840 19.677360 -19.224740 B
660 A 15.494880 19.500390 -19.251280 A
661 A 16.132350 18.953220 -18.838700 A
662 A 16.573560 18.328070 -18.238240 A
663 A 16.157330 18.019820 -17.386290 A
664 A 15.326670 18.221410 -17.002310 A
665 A 14.541320 18.744300 -16.863900 A
666 A 2.715090 16.381460 7.254503 A
667 A 3.506435 16.255250 6.700486 A
668 A 4.055185 16.104890 5.933784 A
669 A 4.927111 15.827370 5.619795 A
670 A 5.186668 15.596600 4.702549 A
671 A 5.712835 14.932420 4.256373 A
672 B 6.505984 14.383140 4.096356 B
673 B 6.869937 15.295150 4.106961 B
674 B 6.412452 16.147070 4.109049 B
675 B 5.657173 16.657110 3.860363 B
676 B 5.212603 17.308200 4.437661 B
677 B 5.769650 18.121710 4.235951 B
678 B 5.300055 18.956440 4.509320 B
679 A 4.954374 19.858360 4.524427 A
680 A 4.188419 20.060440 5.047849 A
681 A 3.495429 19.522080 5.504858 A
682 A 2.683258 18.962880 5.356280 A
683 A 2.161323 18.252950 4.962537 A
684 A 2.272442 17.806260 4.119131 A
685 A -5.939330 -2.351480 23.522070 A
686 A -5.585990 -1.766760 24.286350 A
687 A -5.554193 -1.308213 -24.789080 A
688 A -5.737968 -0.463665 -24.382040 A
689 A -6.422103 0.133096 -24.323930 A
690 A -7.253009 0.742661 -24.472440 A
691 B -7.345189 1.035992 24.486100 B
692 B -6.775327 1.701324 -24.860740 B
693 B -6.296084 2.351698 -24.178210 B
694 B -5.684986 1.708156 -24.036370 B
695 B -5.004360 1.316652 -24.566660 B
696 B -4.462848 0.569850 24.892470 B
697 B -3.499193 0.772876 -24.877330 B
698 A -3.567707 0.499443 24.121460 A
699 A -3.632619 0.604726 23.199190 A
700 A -2.732172 0.614035 22.859910 A
701 A -1.981099 0.347071 23.531760 A
702 A -1.736765 0.071766 24.442940 A
703 A -0.774173 -0.131770 24.372640 A
704 A 10.851600 -19.689250 11.649420 A
705 A 10.157790 -20.372900 11.811410 A
706 A 9.322799 -20.847020 11.825950 A
707 A 8.781763 -21.625480 11.923750 A
708 A 8.070241 -22.260580 12.069340 A
709 A 7.354572 -22.197800 12.715650 A
710 B 6.670079 -21.665510 13.157960 B
711 B 6.251773 -21.046650 13.783270 B
712 B 6.206476 -20.265740 14.328290 B
713 B 6.580034 -19.615610 14.925260 B
714 B 7.397705 -19.209750 15.343350 B
715 B 7.904390 -19.797930 14.772770 B
716 B 7.383179 -19.612000 13.996310 B
717 A 7.222265 -18.841330 13.465300 A
718 A 7.088241 -17.969200 13.011920 A
719 A 6.297002 -18.257260 12.487770 A
720 A 5.797246 -19.104150 12.444980 A
721 A 5.084829 -19.363920 13.050590 A
722 A 4.677695 -19.404620 13.905630 A
723 A -22.794390 -16.402100 5.083792 A
724 A -22.431610 -15.568490 4.847695 A
725 A -21.767400 -15.373180 5.496912 A
726 A -21.503710 -14.568770 5.978711 A
727 A -21.494370 -14.028820 6.749103 A
728 A -21.206860 -13.670530 7.556520 A
729 B -20.488080 -13.107220 7.839751 B
730 B -19.872220 -12.660040 7.298301 B
731 B -19.837120 -13.290220 6.544501 B
732 B -19.705680 -14.215300 6.745601 B
733 B -19.479450 -15.066270 6.938186 B
734 B -18.912080 -15.794810 7.248322 B
735 B -18.664650 -16.644660 6.888000 B
736 A -18.201770 -16.858470 7.752062 A
737 A -17.694810 -17.447770 8.317964 A
738 A -16.965410 -17.976960 7.922178 A
739 A -16.204640 -18.106460 7.299845 A
740 A -15.468930 -17.539540 6.968665 A
741 A -15.070820 -17.908480 6.170909 A
742 A 23.358590 -24.176020 19.550620 A
743 A 23.933730 -23.517870 19.028830 A
744 A 24.725920 -23.419290 18.482870 A
745 A -24.414340 -23.205590 18.000760 A
746 A -23.411930 -23.282840 17.914810 A
747 A -22.878490 -23.623610 17.197370 A
748 B -22.372210 -23.392760 16.413000 B
749 B -21.712930 -22.841690 16.779720 B
750 B -21.459890 -21.964410 17.239690 B
751 B -22.305680 -21.545760 17.438300 B
752 B -22.317440 -20.828820 18.108220 B
753 B -21.519910 -20.725490 17.423830 B
754 B -21.917490 -20.003680 17.032280 B
755 A -22.367110 -19.401800 16.282430 A
756 A -22.359180 -18.280890 16.729960 A
757 A -21.720410 -17.987890 17.395020 A
758 A -22.650630 -18.223260 18.027950 A
759 A -22.230110 -17.712330 18.721480 A
760 A -21.654580 -18.520250 18.264710 A
761 A -11.274350 -16.568080 18.539820 A
762 A -10.765580 -16.344980 17.774980 A
763 A -9.959375 -16.272160 17.123310 A
764 A -9.603941 -16.123050 16.190860 A
765 A -8.854726 -15.523560 16.342170 A
766 A -8.739234 -14.701240 16.810640 A
767 B -8.826318 -14.098350 17.465890 B
768 B -8.915538 -14.651500 18.239960 B
769 B -8.127644 -15.117070 18.369430 B
770 B -7.224419 -15.212080 18.746890 B
771 B -7.127235 -15.864600 19.445900 B
772 B -7.547179 -15.820450 20.291540 B
773 B -8.199861 -15.150750 20.378620 B
774 A -9.035679 -15.564120 20.224530 A
775 A -9.874747 -16.000570 19.936810 A
776 A -10.233650 -16.900710 20.079410 A
777 A -9.957267 -17.707070 20.632670 A
778 A -9.454378 -17.550570 21.457140 A
779 A -9.151150 -17.209020 22.287780 A
780 A -5.270576 -24.721300 8.046848 A
781 A -4.824613 24.890910 8.842032 A
782 A -4.178722 -24.475270 9.358613 A
783 A -3.772539 -23.759140 9.848120 A
784 A -4.497240 -23.194520 9.658850 A
785 A -5.211107 -22.659390 9.375484 A
786 B -5.387128 -21.713570 9.337506 B
787 B -4.471796 -21.507020 9.625847 B
788 B -3.621779 -20.803040 9.671408 B
789 B -3.484483 -20.199800 8.868675 B
790 B -3.909936 -20.384740 7.928783 B
791 B -3.892325 -21.238720 7.577469 B
792 B -2.877628 -21.574230 7.419820 B
793 A -1.734449 -21.440200 6.989760 A
794 A -1.749219 -21.633760 5.943880 A
795 A -2.188488 -21.060910 5.108942 A
796 A -2.320370 -19.903530 4.999933 A
797 A -1.737774 -19.541440 4.458903 A
798 A -1.555775 -18.869930 5.130782 A
799 A -17.064870 8.631699 16.635510 A
800 A -17.406790 8.746319 17.538120 A
801 A -17.192240 9.137073 18.382850 A
802 A -16.787680 9.325590 19.284860 A
803 A -15.878030 8.925088 19.333470 A
804 A -15.122300 8.764508 18.744300 A
805 B -14.480790 8.185980 19.142430 B
806 B -14.316060 7.407216 19.651820 B
807 B -14.283530 6.441219 19.719060 B
808 B -14.317530 5.654878 19.207250 B
809 B -14.506690 4.993424 18.565520 B
810 B -13.884660 4.416358 19.027880 B
811 B -13.294390 4.021779 19.677380 B
812 A -12.429290 3.609860 19.802650 A
813 A -12.376540 2.776836 20.291390 A
814 A -13.036070 2.094536 20.199860 A
815 A -13.550300 2.408764 19.467270 A
816 A -14.045420 2.981813 18.949750 A
817 A -14.718820 3.295781 18.333840 A
818 A -6.716198 -10.422810 -6.606916 A
819 A -6.863309 -11.215380 -7.168406 A
820 A -6.786167 -11.642270 -7.959693 A
821 A -6.663857 -11.971970 -8.882098 A
822 A -5.826414 -11.498800 -8.573538 A
823 A -5.089022 -11.517970 -7.814963 A
824 B -4.953550 -11.367040 -8.778402 B
825 B -4.062655 -10.806430 -8.671588 B
826 B -3.973292 -10.404840 -9.515808 B
827 B -3.381705 -10.708890 -10.247740 B
828 B -3.950051 -10.198100 -10.856690 B
829 B -4.664297 -10.462570 -11.427210 B
830 B -5.205920 -11.225160 -11.045480 B
831 A -6.075316 -10.737260 -10.994960 A
832 A -6.224759 -10.541550 -11.940200 A
833 A -7.077418 -10.426560 -12.382200 A
834 A -7.868161 -10.900200 -12.656810 A
835 A -8.860070 -11.109850 -12.447980 A
836 A -9.480466 -11.664980 -11.926740 A
837 A -13.023640 3.781415 -18.861250 A
838 A -13.435200 4.468210 -18.344690 A
839 A -14.236110 4.881498 -18.081900 A
840 A -15.065670 4.884340 -18.526190 A
841 A -15.379280 4.022712 -18.841340 A
842 A -15.612540 3.166409 -18.438020 A
843 B -15.926280 3.532439 -17.581560 B
844 B -16.023740 3.383530 -16.621050 B
845 B -15.743290 3.725579 -15.812990 B
846 B -15.065440 4.516223 -15.944040 B
847 B -14.599360 5.186338 -15.396450 B
848 B -15.028350 5.635832 -14.629090 B
849 B -15.434790 6.251866 -14.002500 B
850 A -14.940760 6.716221 -13.228270 A
851 A -14.111350 7.140396 -12.829470 A
852 A -13.330370 7.656005 -13.063550 A
853 A -12.833080 7.418331 -13.850780 A
854 A -12.364210 7.242966 -14.677170 A
855 A -11.740630 7.657754 -15.329790 A
856 A 2.263082 13.097780 -10.876710 A
857 A 2.306307 12.173590 -10.674680 A
858 A 1.842127 11.656930 -10.075580 A
859 A 2.207683 11.383980 -9.259016 A
860 A 2.915000 11.568930 -8.657407 A
861 A 3.083683 11.839550 -7.758692 A
862 B 3.545808 11.060770 -7.332620 B
863 B 4.282580 10.448640 -7.080014 B
864 B 4.761969 10.390160 -6.259709 B
865 B 4.812281 9.719296 -5.494381 B
866 B 4.314351 10.025300 -4.755294 B
867 B 3.717863 10.671030 -5.035896 B
868 B 4.339207 11.350580 -5.340638 B
869 A 4.437589 12.230360 -5.672800 A
870 A 4.505369 13.073700 -5.318607 A
871 A 4.419000 13.216930 -4.385671 A
872 A 4.312085 12.939750 -3.493551 A
873 A 4.247434 12.461810 -2.622428 A
874 A 4.166688 11.758040 -1.934725 A
875 A -7.790208 14.662170 14.510910 A
876 A -8.391129 14.617090 13.737290 A
877 A -9.283648 14.601080 13.421790 A
878 A -9.899138 14.762500 14.159520 A
879 A -10.560450 15.259380 14.663020 A
880 A -11.455270 15.544030 14.624760 A
881 B -12.151390 15.278280 13.980810 B
882 B -12.213520 14.353010 14.122930 B
883 B -12.541910 13.463730 14.085600 B
884 B -12.975100 12.936740 14.785800 B
885 B -12.993930 13.096280 15.735590 B
886 B -12.754900 13.416110 16.666390 B
887 B -12.542650 14.192820 17.153350 B
888 A -12.053660 14.957030 17.452970 A
889 A -11.561290 15.735310 17.356750 A
890 A -10.776130 16.075070 16.959040 A
891 A -10.282000 16.377540 16.158370 A
892 A -9.662168 16.660350 15.470380 A
893 A -8.894586 17.209380 15.053590 A
894 A 16.032680 -19.302230 6.493080 A
895 A 16.165470 -19.418730 7.503347 A
896 A 17.048430 -19.199970 7.916332 A
897 A 17.743190 -18.904180 8.554758 A
898 A 18.435960 -18.303460 8.700190 A
899 A 18.409120 -17.359750 8.890431 A
900 B 18.220230 -16.441470 8.766132 B
901 B 17.578640 -15.744940 8.840173 B
902 B 16.705630 -15.410570 8.789173 B
903 B 15.741390 -15.486730 8.675691 B
904 B 15.140380 -15.358430 9.414762 B
905 B 14.971590 -15.066680 10.295180 B
906 B 14.321430 -14.888420 10.986820 B
907 A 13.459520 -15.062160 11.354210 A
908 A 12.627260 -15.499440 11.168820 A
909 A 12.264270 -16.179550 10.568390 A
910 A 12.302840 -16.548310 9.678925 A
911 A 13.054570 -16.589530 9.055964 A
912 A 13.983260 -16.671450 8.926495 A
913 A -22.686160 5.559529 6.055110 A
914 A -22.927300 6.499511 5.962804 A
915 A -22.387620 7.290179 6.189538 A
916 A -21.625210 6.823093 6.588204 A
917 A -21.538500 6.305973 7.427512 A
918 A -20.879240 5.917666 8.015265 A
919 B -20.067840 5.420823 8.260107 B
920 B -19.519130 4.756148 8.800894 B
921 B -18.572450 4.631793 8.937336 B
922 B -18.246000 4.082335 9.664429 B
923 B -18.108440 3.452284 10.375700 B
924 B -18.315720 3.331674 11.304700 B
925 B -19.302230 3.101283 11.473140 B
926 A -19.412080 2.278531 11.007400 A
927 A -19.456520 1.536278 10.384760 A
928 A -19.177160 1.102700 9.552162 A
929 A -19.239480 0.927088 8.616403 A
930 A -20.193450 1.132865 8.791636 A
931 A -21.006150 1.627375 8.839600 A
932 A 8.913144 -21.474990 -0.983089 A
933 A 9.426112 -21.149930 -1.699660 A
934 A 9.621480 -21.343080 -2.628589 A
935 A 9.395347 -21.254940 -3.592321 A
936 A 8.773253 -20.810160 -4.174924 A
937 A 8.490508 -20.133470 -4.783706 A
938 B 8.292165 -19.575430 -5.577099 B
939 B 8.573818 -19.219050 -6.411078 B
940 B 9.464107 -19.430810 -6.702670 B
941 B 9.981406 -19.566720 -5.943882 B
942 B 10.571090 -19.138210 -5.339880 B
943 B 11.207930 -19.737920 -4.921561 B
944 B 11.959370 -20.086680 -5.375127 B
945 A 12.431320 -20.126880 -6.201071 A
946 A 11.833090 -19.808250 -6.880906 A
947 A 11.166250 -19.255620 -7.190612 A
948 A 10.756620 -18.430870 -7.164376 A
949 A 10.414270 -17.566570 -7.263465 A
950 A 10.213500 -17.130520 -6.460104 A
951 A 22.223150 -0.421353 22.306760 A
952 A 21.777110 0.120371 22.941280 A
953 A 21.158200 0.142356 23.726650 A
954 A 21.165730 0.693915 24.515390 A
955 A 22.011430 1.078835 24.625480 A
956 A 22.880700 0.996149 -24.926950 A
957 B 23.818920 1.019636 -24.664110 B
958 B 24.783070 0.967767 -24.495460 B
959 B -24.228700 1.305037 -24.321170 B
960 B -24.592720 1.824075 24.865540 B
961 B 24.752020 2.579390 24.671950 B
962 B 24.143880 3.221413 24.353490 B
963 B 23.431650 3.773977 24.025010 B
964 A 22.685110 4.359474 23.847630 A
965 A 22.078710 4.891308 23.348220 A
966 A 21.420550 5.600062 23.498220 A
967 A 20.797830 6.074330 24.058990 A
968 A 21.000050 5.984431 -24.913260 A
969 A 21.192240 5.524123 -24.085520 A
970 A 20.724510 5.893301 -10.304680 A
971 A 20.428420 5.156508 -9.827881 A
972 A 19.794080 5.138034 -9.149271 A
973 A 18.809340 5.287393 -9.319031 A
974 A 18.129380 4.543003 -9.181906 A
975 A 17.369070 4.821407 -9.635719 A
976 B 16.567920 4.507652 -10.019790 B
977 B 16.431960 5.470871 -9.984236 B
978 B 16.312070 5.527209 -10.937270 B
979 B 15.625570 5.195148 -11.527530 B
980 B 14.944080 5.034424 -10.834890 B
981 B 15.167690 4.655679 -9.918076 B
982 B 15.065920 4.263450 -9.027056 B
983 A 15.918940 3.738537 -9.699771 A
984 A 16.326580 3.535484 -8.831925 A
985 A 16.669160 2.543284 -9.013008 A
986 A 16.313340 2.162736 -8.191599 A
987 A 15.961190 2.592891 -7.390871 A
988 A 15.168460 2.605069 -6.869598 A
989 A -18.227950 4.602781 1.190958 A
990 A -17.675050 4.182768 1.825665 A
991 A -17.256190 4.172241 2.656592 A
992 A -16.811400 4.428196 3.460994 A
993 A -16.472570 4.563885 4.358446 A
994 A -16.025910 4.595137 5.210330 A
995 B -15.681760 3.808290 5.612538 B
996 B -15.050510 3.213998 5.245102 B
997 B -14.233000 2.920507 5.631065 B
998 B -13.340560 3.282349 5.824738 B
999 B -12.739530 3.709766 6.407408 B
1000 B -11.851030 3.622161 6.894982 B
1001 B -11.426530 4.381013 6.464975 B
1002 A -11.015330 5.004353 5.895813 A
1003 A -11.284730 5.570256 5.158805 A
1004 A -11.701460 5.497128 4.321321 A
1005 A -11.983600 4.644137 4.032793 A
1006 A -12.277130 3.803145 4.338386 A
1007 A -12.193670 3.106850 4.997953 A
1008 A 12.346030 -0.483845 22.167720 A
1009 A 12.697010 -1.132046 21.537510 A
1010 A 12.646240 -2.024858 21.238320 A
1011 A 12.161930 -2.827074 21.518160 A
1012 A 11.625670 -3.442926 22.040860 A
1013 A 11.297670 -4.025111 22.716800 A
1014 B 11.322790 -4.131633 23.656130 B
1015 B 11.575380 -4.482577 24.533360 B
1016 B 12.214420 -4.984248 -24.927560 B
1017 B 13.180540 -4.982012 -24.911080 B
1018 B 12.966920 -4.614350 24.122060 B
1019 B 12.466690 -4.433933 23.332530 B
1020 B 12.993720 -4.046658 22.567480 B
1021 A 13.357870 -4.924012 22.544170 A
1022 A 13.662240 -5.749073 22.838130 A
1023 A 12.934800 -6.328528 22.946550 A
1024 A 12.111760 -6.739326 22.652960 A
1025 A 11.529830 -6.635218 21.845110 A
1026 A 11.333720 -6.486176 20.903980 A
1027 A 21.961150 9.774007 -16.919280 A
1028 A 22.084610 10.549050 -16.302420 A
1029 A 21.591190 11.284290 -15.826470 A
1030 A 21.846880 12.026430 -15.318290 A
1031 A 22.297700 12.731930 -14.903370 A
1032 A 22.202940 13.514760 -14.399020 A
1033 B 22.895870 14.191630 -14.561310 B
1034 B 23.641370 14.767990 -14.529430 B
1035 B 23.675770 15.783030 -14.588760 B
1036 B 23.643050 16.595080 -14.113550 B
1037 B 23.255360 16.714610 -13.231370 B
1038 B 22.662490 16.348310 -12.597730 B
1039 B 22.091840 15.582710 -12.858040 B
1040 A 22.321980 14.689290 -13.077250 A
1041 A 23.262410 14.465930 -12.936490 A
1042 A 24.172000 14.647230 -12.729150 A
1043 A 24.691050 14.970880 -12.002370 A
1044 A -24.599350 15.561980 -11.592290 A
1045 A -23.705520 15.396730 -11.296500 A
1046 A 9.516793 21.167840 19.517350 A
1047 A 9.110051 20.449510 19.063710 A
1048 A 8.450107 19.820420 18.746440 A
1049 A 7.515089 20.158310 18.840580 A
1050 A 6.570291 20.312620 18.722760 A
1051 A 6.094664 20.581380 18.027770 A
1052 B 6.046382 21.459920 17.724390 B
1053 B 6.645458 22.227100 17.903220 B
1054 B 7.510293 22.667430 17.922110 B
1055 B 8.104955 22.582140 18.631400 B
1056 B 8.321465 22.234660 19.494360 B
1057 B 7.655111 21.722000 20.001640 B
1058 B 7.120424 22.313370 19.517180 B
1059 A 6.222040 22.264550 19.156300 A
1060 A 5.278759 22.642920 19.149930 A
1061 A 4.734735 21.901580 19.453910 A
1062 A 4.015413 22.256870 20.041840 A
1063 A 3.432487 22.660300 19.480990 A
1064 A 2.811242 22.572440 18.749100 A
1065 A -22.828520 -19.732320 3.874603 A
1066 A -22.271790 -19.106290 4.194255 A
1067 A -21.934920 -18.240140 4.373065 A
1068 A -21.202750 -17.451110 4.382850 A
1069 A -20.887740 -17.588700 3.416075 A
1070 A -20.857770 -18.245410 2.733878 A
1071 B -19.985360 -17.769500 2.548901 B
1072 B -19.099080 -18.089180 2.394464 B
1073 B -18.261630 -17.643600 2.136013 B
1074 B -17.542040 -18.205130 2.620392 B
1075 B -17.917070 -18.977740 3.141753 B
1076 B -18.309100 -19.849860 3.184896 B
1077 B -19.084390 -19.582530 3.675687 B
1078 A -20.012550 -19.392660 3.638225 A
1079 A -20.101570 -18.439880 3.611281 A
1080 A -19.739570 -17.907040 4.358332 A
1081 A -20.109330 -18.617470 4.910982 A
1082 A -20.388490 -19.260860 5.577271 A
1083 A -20.768900 -20.110380 5.917983 A
1084 A -4.729878 -5.989118 21.037550 A
1085 A -4.114040 -6.381393 20.341640 A
1086 A -3.485517 -6.507410 19.599720 A
1087 A -3.768919 -7.423660 19.571280 A
1088 A -3.773161 -8.344623 19.387520 A
1089 A -4.720553 -8.293503 19.104490 A
1090 B -4.337691 -7.964025 18.316840 B
1091 B -3.399210 -8.183725 18.318950 B
1092 B -2.588637 -8.675525 18.527360 B
1093 B -2.304456 -9.591355 18.602200 B
1094 B -2.318588 -10.555730 18.543240 B
1095 B -2.956791 -11.282670 18.632150 B
1096 B -3.784164 -11.631130 18.994790 B
1097 A -4.104451 -11.329480 19.851820 A
1098 A -3.528093 -11.303270 20.655200 A
1099 A -3.146878 -10.446820 20.728990 A
1100 A -2.775947 -9.557597 20.862380 A
1101 A -2.314118 -8.715756 21.125290 A
1102 A -2.315985 -7.813973 20.851060 A
1103 A -15.998630 -16.339350 -3.657985 A
1104 A -15.478860 -16.811580 -2.993071 A
1105 A -14.584590 -16.637460 -2.488220 A
1106 A -14.349310 -16.810310 -1.614196 A
1107 A -14.286940 -17.392620 -0.873136 A
1108 A -14.497810 -18.149400 -0.313257 A
1109 B -14.166850 -19.053910 -0.223799 B
1110 B -14.780840 -19.687490 -0.599474 B
1111 B -15.553310 -20.003720 -1.084063 B
1112 B -16.458960 -20.063880 -1.490346 B
1113 B -16.285920 -19.719230 -2.346700 B
1114 B -15.555660 -19.090000 -2.400733 B
1115 B -15.384700 -18.443430 -1.687719 B
1116 A -15.890670 -17.804480 -1.173736 A
1117 A -16.401550 -17.153170 -0.698700 A
1118 A -17.104640 -16.473000 -0.570886 A
1119 A -17.565360 -15.719150 -0.169942 A
1120 A -17.876090 -14.896740 -0.501731 A
1121 A -18.592910 -14.409410 -0.861688 A
1122 A -0.028604 -7.060948 7.454819 A
1123 A -0.330627 -7.462451 8.249387 A
1124 A -1.037813 -7.342851 8.845189 A
1125 A -1.532823 -8.149100 9.141917 A
1126 A -1.553363 -8.759565 9.837956 A
1127 A -1.497104 -9.360873 10.638510 A
1128 B -0.699408 -9.709742 11.101800 B
1129 B 0.199103 -9.917094 10.848510 B
1130 B 0.560349 -10.483130 10.134730 B
1131 B 0.365589 -11.073360 9.445334 B
1132 B 1.274384 -10.787700 9.239602 B
1133 B 1.792286 -10.402160 9.951328 B
1134 B 2.063869 -10.517820 10.852930 B
1135 A 2.275457 -11.442220 10.895010 A
1136 A 2.198668 -12.139770 10.251400 A
1137 A 1.740908 -12.430280 9.464146 A
1138 A 1.146437 -12.468260 8.693575 A
1139 A 0.616603 -12.274170 7.914473 A
1140 A 0.129371 -11.528390 7.531020 A
1141 A 20.333740 -4.826272 13.887540 A
1142 A 19.621900 -5.452692 13.756010 A
1143 A 18.924340 -5.998411 13.440560 A
1144 A 18.651160 -6.254932 12.545730 A
1145 A 17.837530 -6.097865 12.048430 A
1146 A 17.149130 -5.469035 11.972700 A
1147 B 17.028980 -4.535414 12.087290 B
1148 B 16.991110 -3.638544 12.434510 B
1149 B 16.413310 -3.102521 12.953840 B
1150 B 15.760860 -2.745022 13.525210 B
1151 B 14.897420 -2.417884 13.653650 B
1152 B 13.956040 -2.647467 13.413080 B
1153 B 13.355920 -3.316625 13.090230 B
1154 A 13.004830 -4.206764 13.134060 A
1155 A 13.277880 -5.024576 13.526290 A
1156 A 14.020610 -4.833993 14.101720 A
1157 A 13.914810 -4.626374 15.058400 A
1158 A 14.348910 -3.817964 15.027740 A
1159 A 13.792130 -3.174167 14.611980 A
1160 A -4.701078 -3.357245 -20.664050 A
1161 A -4.183146 -2.639681 -20.847180 A
1162 A -4.039583 -1.969966 -21.469270 A
1163 A -4.842126 -1.799755 -22.063870 A
1164 A -5.240788 -1.705341 -22.904990 A
1165 A -4.524052 -1.465662 -23.504150 A
1166 B -3.865493 -0.883318 -23.206390 B
1167 B -3.171527 -0.250299 -23.463280 B
1168 B -2.452009 0.270874 -22.896770 B
1169 B -2.204015 -0.003437 -22.027350 B
1170 B -2.602303 -0.903958 -22.131940 B
1171 B -2.240328 -1.762903 -22.143860 B
1172 B -1.446021 -2.294827 -22.490070 B
1173 A -0.911140 -2.751696 -23.124470 A
1174 A -0.571763 -3.420480 -22.548350 A
1175 A -0.172053 -4.166896 -22.058570 A
1176 A -0.420645 -5.098437 -21.801690 A
1177 A 0.156707 -5.759009 -21.477270 A
1178 A 0.164526 -6.750513 -21.053350 A
1179 A 9.233626 -9.173407 14.307310 A
1180 A 9.926211 -8.927552 14.985160 A
1181 A 10.590220 -8.485160 15.560760 A
1182 A 10.831940 -7.918089 16.258730 A
1183 A 11.004840 -7.764782 17.207730 A
1184 A 10.459650 -7.805080 17.997820 A
1185 B 10.828060 -7.577091 18.847640 B
1186 B 11.801680 -7.522412 19.006580 B
1187 B 12.091120 -7.199564 18.161090 B
1188 B 11.999440 -7.095338 17.190590 B
1189 B 12.547850 -7.898979 17.061190 B
1190 B 13.347120 -8.152644 16.501770 B
1191 B 14.247750 -8.364316 16.136760 B
1192 A 14.947450 -7.747523 16.281310 A
1193 A 15.466260 -6.938636 16.155420 A
1194 A 15.358080 -6.569919 15.293020 A
1195 A 15.405190 -6.469734 14.381470 A
1196 A 15.306840 -6.709687 13.474220 A
1197 A 15.562260 -6.715352 12.540810 A
1198 A 2.245474 0.849776 -11.389340 A
1199 A 1.486404 1.135925 -10.911640 A
1200 A 1.306074 1.674740 -10.143460 A
1201 A 1.011138 2.415756 -9.616167 A
1202 A 1.776543 2.949981 -9.244789 A
1203 A 2.235441 3.408294 -8.551412 A
1204 B 2.702502 3.825213 -7.829604 B
1205 B 3.259510 3.802561 -7.041104 B
1206 B 3.100644 2.879462 -7.383270 B
1207 B 2.887947 1.965505 -7.639671 B
1208 B 3.176101 1.295964 -8.316824 B
1209 B 3.095040 0.351600 -8.063910 B
1210 B 2.400339 -0.153093 -7.681660 B
1211 A 1.712304 -0.732648 -7.404099 A
1212 A 2.148481 -1.504422 -7.751013 A
1213 A 2.279361 -2.408927 -8.026911 A
1214 A 1.977781 -3.252047 -7.825837 A
1215 A 1.367001 -3.821652 -7.342331 A
1216 A 0.627449 -4.137341 -6.847408 A
1217 A -13.228180 23.480590 -17.377510 A
1218 A -13.591390 23.770420 -18.199990 A
1219 A -14.047030 23.833710 -19.025770 A
1220 A -14.810570 23.956430 -19.599040 A
1221 A -14.999830 24.884770 -19.662650 A
1222 A -14.653500 -24.137930 -19.511770 A
1223 B -14.079490 -23.405240 -19.563240 B
1224 B -13.498460 -22.650500 -19.730920 B
1225 B -13.023550 -21.856530 -20.077930 B
1226 B -13.361110 -21.347500 -20.803340 B
1227 B -13.830320 -21.555300 -21.620700 B
1228 B -14.550080 -21.808010 -22.230350 B
1229 B -14.834870 -22.433560 -22.885860 B
1230 A -14.293330 -22.763400 -23.592300 A
1231 A -13.699690 -22.013000 -23.486770 A
1232 A -13.424180 -21.141480 -23.206880 A
1233 A -12.840760 -20.493740 -22.835520 A
1234 A -12.899970 -19.577390 -22.514550 A
1235 A -12.715590 -18.710330 -22.971320 A
1236 A -21.668850 13.644230 12.766590 A
1237 A -22.325370 13.338950 13.431910 A
1238 A -22.385970 13.153040 14.381250 A
1239 A -21.416810 12.975080 14.469240 A
1240 A -20.871590 12.458660 13.887660 A
1241 A -20.287360 12.349010 13.125890 A
1242 B -19.428810 12.643740 12.852370 B
1243 B -18.464990 12.675920 12.956790 B
1244 B -17.982110 13.400260 13.350460 B
1245 B -18.355720 14.207750 13.692180 B
1246 B -19.198130 14.463490 13.342860 B
1247 B -19.840300 14.078960 12.740090 B
1248 B -20.082080 13.735670 11.871420 B
1249 A -20.793590 13.670610 11.219080 A
1250 A -20.337350 13.590530 10.328700 A
1251 A -20.106830 14.435330 9.919804 A
1252 A -20.241580 15.130350 10.581070 A
1253 A -19.811100 15.371910 11.417920 A
1254 A -19.583300 15.591670 12.316270 A
1255 A -23.005600 -6.124067 -24.632360 A
1256 A -22.748750 -6.785052 24.486140 A
1257 A -22.403320 -6.972812 23.669650 A
1258 A -21.964350 -7.005867 22.771080 A
1259 A -22.081990 -6.545692 21.971390 A
1260 A -21.650550 -5.770422 21.876670 A
1261 B -20.943960 -6.350303 21.662500 B
1262 B -20.612810 -6.530902 20.801650 B
1263 B -20.528060 -7.448372 20.883210 B
1264 B -21.275190 -7.333489 20.379200 B
1265 B -21.949790 -6.694262 20.851020 B
1266 B -22.528850 -6.329751 20.158080 B
1267 B -23.017190 -6.096838 19.367220 B
1268 A -22.672670 -6.370968 18.507960 A
1269 A -23.468610 -6.895331 18.278910 A
1270 A -23.738610 -7.515617 17.450780 A
1271 A -23.719160 -8.352340 17.960140 A
1272 A -24.463300 -8.550031 18.470190 A
1273 A 24.758850 -8.273149 17.965860 A
1274 A -0.604791 10.525750 5.601162 A
1275 A -0.854151 9.856185 6.293530 A
1276 A -1.155898 9.218645 6.985044 A
1277 A -1.974671 9.565137 6.605117 A
1278 A -1.913082 9.983460 5.718228 A
1279 A -1.882991 9.825977 4.790040 A
1280 B -1.582798 9.044517 4.359491 B
1281 B -2.085283 8.235025 4.198321 B
1282 B -2.668901 7.486835 3.946555 B
1283 B -2.886154 7.349134 3.021306 B
1284 B -3.208899 7.681406 2.212899 B
1285 B -3.286351 8.632328 2.103339 B
1286 B -3.035728 9.030662 2.951549 B
1287 A -2.839569 9.994639 2.769057 A
1288 A -2.838254 10.856930 2.346955 A
1289 A -3.243833 11.665490 2.060989 A
1290 A -3.742153 12.451550 1.913555 A
1291 A -3.828978 13.445670 1.911869 A
1292 A -3.939462 14.253090 2.412578 A
1293 A -10.294870 -12.975940 22.530590 A
1294 A -9.604442 -13.575240 22.380620 A
1295 A -8.793661 -14.025620 22.439830 A
1296 A -7.828428 -14.039940 22.533910 A
1297 A -7.082350 -13.741810 22.055780 A
1298 A -6.861877 -12.808570 21.980760 A
1299 B -6.283361 -12.070370 22.071070 B
1300 B -6.495681 -11.137760 22.291320 B
1301 B -7.314755 -10.713310 22.028790 B
1302 B -8.215315 -10.444250 22.109520 B
1303 B -8.997409 -10.114170 22.526510 B
1304 B -9.711355 -10.066510 23.165320 B
1305 B -10.295980 -10.649230 23.639130 B
1306 A -10.575960 -11.570710 23.516570 A
1307 A -11.437040 -11.881520 23.831650 A
1308 A -12.314940 -11.778490 24.167470 A
1309 A -12.275160 -11.090850 24.828280 A
1310 A -12.207790 -10.352410 -24.491420 A
1311 A -12.285290 -9.601566 -23.913650 A
1312 A 14.891740 -5.433314 -3.433431 A
1313 A 14.682760 -4.485478 -3.618270 A
1314 A 15.397360 -3.876012 -3.921795 A
1315 A 16.181280 -3.425590 -4.271054 A
1316 A 17.154160 -3.502911 -4.314163 A
1317 A 17.396070 -3.984005 -3.505795 A
1318 B 17.143450 -4.572599 -2.807780 B
1319 B 17.154750 -5.059058 -1.979052 B
1320 B 17.763590 -5.734352 -1.987689 B
1321 B 18.658810 -6.015332 -1.631281 B
1322 B 19.065730 -6.212745 -2.402782 B
1323 B 19.904160 -6.497528 -1.954377 B
1324 B 20.740490 -6.319383 -1.435419 B
1325 A 20.859130 -5.352598 -1.202868 A
1326 A 21.762520 -5.162069 -1.467650 A
1327 A 21.941330 -6.152947 -1.534130 A
1328 A 21.962230 -7.118331 -1.453182 A
1329 A 22.932520 -6.899196 -1.271695 A
1330 A 23.367810 -6.783539 -2.123715 A
1331 A 23.830470 18.827890 -12.177750 A
1332 A 23.042790 18.423610 -11.901950 A
1333 A 22.176050 18.782700 -11.795510 A
1334 A 21.515930 18.513000 -12.415350 A
1335 A 21.106150 18.554970 -13.287070 A
1336 A 21.351540 19.150740 -14.019650 A
1337 B 22.146650 19.651380 -14.012700 B
1338 B 22.807800 20.251560 -13.684740 B
1339 B 23.746580 20.326170 -13.436640 B
1340 B 24.498830 20.897310 -13.362870 B
1341 B 24.562450 21.795420 -13.628510 B
1342 B 24.781260 22.500920 -14.292300 B
1343 B 24.706580 22.920590 -15.163770 B
1344 A 24.910600 23.347030 -15.982450 A
1345 A -24.439760 23.119140 -16.704160 A
1346 A -23.561630 22.676260 -16.810310 A
1347 A -23.271040 21.779710 -16.461110 A
1348 A -23.062260 20.939040 -16.078900 A
1349 A -22.879580 20.664510 -15.148020 A
1350 A -10.969320 -15.477060 -15.849460 A
1351 A -11.556240 -14.779990 -16.184150 A
1352 A -12.098540 -14.132490 -16.584010 A
1353 A -12.574240 -14.275320 -17.393780 A
1354 A -12.630250 -13.947580 -18.320080 A
1355 A -12.641530 -13.216150 -18.904650 A
1356 B -12.840700 -12.561280 -19.543420 B
1357 B -12.688020 -11.585740 -19.635690 B
1358 B -13.230540 -10.798420 -19.804470 B
1359 B -14.125670 -10.718630 -20.250000 B
1360 B -14.955140 -10.561020 -19.814100 B
1361 B -15.034020 -10.142710 -18.958860 B
1362 B -14.648060 -9.638161 -18.244930 B
1363 A -15.048280 -9.298478 -17.433010 A
1364 A -15.637500 -9.833393 -16.931860 A
1365 A -16.123280 -10.641980 -16.739810 A
1366 A -16.913020 -11.180470 -16.869920 A
1367 A -17.637710 -11.606360 -17.328180 A
1368 A -18.244010 -12.121630 -17.842080 A
1369 A -19.787080 0.928747 13.691740 A
1370 A -19.074450 0.875753 13.070150 A
1371 A -18.262080 0.532746 12.780970 A
1372 A -17.612220 1.071256 13.242130 A
1373 A -17.071040 1.799981 13.651880 A
1374 A -17.662780 2.534237 13.818370 A
1375 B -18.419010 2.173266 14.290800 B
1376 B -18.259730 1.657905 15.109270 B
1377 B -18.215560 0.886144 15.742200 B
1378 B -17.520550 0.423251 15.194160 B
1379 B -16.646630 -0.059121 15.180750 B
1380 B -15.817970 -0.487815 14.891920 B
1381 B -15.063270 -1.023322 14.729520 B
1382 A -14.705150 -0.947368 13.808430 A
1383 A -14.865940 -0.757248 12.831450 A
1384 A -15.140220 0.066377 12.446800 A
1385 A -15.444530 0.814248 12.991840 A
1386 A -15.524250 1.548669 13.601000 A
1387 A -15.429050 1.912486 14.516140 A
1388 A -22.905680 -12.975100 -15.589000 A
1389 A -23.618160 -12.936690 -16.259920 A
1390 A -24.477960 -13.118520 -16.562140 A
1391 A 24.678550 -12.991200 -15.987070 A
1392 A 24.236990 -12.207670 -15.696540 A
1393 A 23.723140 -11.697140 -16.267770 A
1394 B 23.569910 -11.249190 -17.092010 B
1395 B 24.089130 -10.616120 -17.639960 B
1396 B 24.839030 -9.986345 -17.802880 B
1397 B -24.623610 -9.114982 -17.640270 B
1398 B -23.790640 -8.837757 -17.976680 B
1399 B -23.642050 -9.715181 -18.404990 B
1400 B -23.369710 -10.279990 -19.146880 B
1401 A -23.885880 -10.027890 -19.910560 A
1402 A -24.273560 -9.298559 -20.358590 A
1403 A 24.948300 -9.035891 -20.969370 A
1404 A 24.000400 -8.982280 -21.293410 A
1405 A 23.286820 -9.012487 -21.920600 A
1406 A 22.579090 -8.455617 -22.284800 A
1407 A 17.875040 -19.709060 -21.756950 A
1408 A 18.487110 -20.353690 -22.191920 A
1409 A 19.310320 -20.733580 -22.573140 A
1410 A 20.072460 -21.201140 -22.926700 A
1411 A 20.177760 -22.059000 -23.348310 A
1412 A 20.506850 -22.947470 -23.366630 A
1413 B 21.000160 -23.431820 -22.686010 B
1414 B 21.171350 -23.005070 -21.859650 B
1415 B 21.572560 -22.155760 -21.750040 B
1416 B 21.921950 -21.724310 -22.558150 B
1417 B 22.223510 -21.527270 -23.436050 B
1418 B 22.118950 -22.324360 -23.941330 B
1419 B 21.926370 -23.244160 -23.947460 B
1420 A 22.190840 -24.168810 -24.010130 A
1421 A 22.949050 -24.121160 -23.407290 A
1422 A 23.536950 -23.911310 -22.677150 A
1423 A 24.194710 -23.224900 -22.913380 A
1424 A 24.752560 -22.588270 -23.397870 A
1425 A -24.745240 -22.328210 -24.216880 A
1426 A -16.723920 12.405710 16.851480 A
1427 A -16.392460 13.170010 16.391280 A
1428 A -16.393340 14.064390 16.049420 A
1429 A -15.729840 14.582370 15.532240 A
1430 A -14.816530 14.862170 15.312130 A
1431 A -14.143050 15.425630 14.933250 A
1432 B -13.822700 16.313350 15.066390 B
1433 B -13.730600 17.266600 15.100160 B
1434 B -14.353810 17.875680 15.459240 B
1435 B -15.086240 17.947570 14.843740 B
1436 B -14.926230 17.596100 13.975970 B
1437 B -14.598180 16.948200 13.348800 B
1438 B -14.199710 16.345910 12.710040 B
1439 A -13.285470 16.429550 12.547070 A
1440 A -12.615200 17.097210 12.767340 A
1441 A -12.640680 17.867590 13.342090 A
1442 A -12.673730 18.466610 14.134950 A
1443 A -12.415130 19.321660 14.447610 A
1444 A -12.262290 20.065880 15.043160 A
1445 A -0.543050 23.681180 8.458572 A
1446 A -0.322210 23.731490 7.519932 A
1447 A -0.605039 23.838120 6.606632 A
1448 A -1.038084 23.502470 5.811806 A
1449 A -1.456379 22.767780 6.294766 A
1450 A -0.957955 22.051320 6.654150 A
1451 B -0.402290 21.487520 7.173741 B
1452 B -0.105017 20.649980 7.527912 B
1453 B -0.099485 19.927220 6.905750 B
1454 B -0.945186 20.156920 6.552747 B
1455 B -1.649015 20.291340 5.974329 B
1456 B -2.272916 20.889550 5.542987 B
1457 B -2.300877 21.407920 4.736223 B
1458 A -1.678525 21.923870 4.262144 A
1459 A -0.775655 21.923300 3.990415 A
1460 A 0.169296 21.999450 3.895733 A
1461 A 0.982679 21.763860 4.306704 A
1462 A 1.639718 21.103660 4.525745 A
1463 A 2.129335 20.440740 4.958761 A
1464 A -16.564590 0.424415 -1.144960 A
1465 A -17.353750 0.562152 -0.576283 A
1466 A -18.182310 0.652468 -0.110899 A
1467 A -18.717540 0.159280 0.546015 A
1468 A -18.929120 -0.691504 0.990758 A
1469 A -18.903200 -1.657737 0.898921 A
1470 B -18.693320 -2.438786 0.384192 B
1471 B -18.258160 -3.139869 -0.105646 B
1472 B -17.732850 -3.613999 -0.748394 B
1473 B -17.329060 -3.383790 -1.578461 B
1474 B -16.856670 -2.610443 -1.846297 B
1475 B -16.263420 -1.963437 -2.247711 B
1476 B -15.898530 -1.180148 -2.721030 B
1477 A -15.202590 -0.542478 -2.439887 A
1478 A -14.815520 0.161192 -1.927609 A
1479 A -14.093800 0.547951 -1.396922 A
1480 A -13.560310 1.249070 -0.970619 A
1481 A -13.401550 2.143201 -0.709824 A
1482 A -13.001560 2.932487 -0.292495 A
1483 A 15.475030 17.726690 -9.814500 A
1484 A 15.187580 18.623470 -9.978421 A
1485 A 15.110810 19.574610 -9.870227 A
1486 A 14.138870 19.578250 -9.850708 A
1487 A 13.249860 19.290200 -9.717985 A
1488 A 12.491140 19.066350 -9.134196 A
1489 B 11.951140 19.223260 -8.366302 B
1490 B 11.901440 19.658830 -7.502485 B
1491 B 12.441810 20.350080 -7.133554 B
1492 B 12.707280 21.207950 -6.802086 B
1493 B 12.496940 22.128930 -7.013262 B
1494 B 12.551520 22.180280 -7.974346 B
1495 B 13.043430 21.755240 -8.682026 B
1496 A 13.178370 21.185220 -9.489590 A
1497 A 13.778270 20.647170 -10.016480 A
1498 A 14.411380 20.916420 -10.720190 A
1499 A 14.512380 21.304740 -11.601970 A
1500 A 15.102690 21.603010 -12.291320 A
1501 A 15.920840 21.859830 -12.736970 A
1502 A -21.334340 15.869510 20.361480 A
1503 A -21.884200 16.063130 21.132530 A
1504 A -22.898770 16.121190 21.278970 A
1505 A -23.499140 15.535990 21.759650 A
1506 A -24.394520 15.353800 22.139140 A
1507 A 24.623470 15.603650 22.406340 A
1508 B 23.811560 15.017440 22.562660 B
1509 B 23.204240 14.262910 22.453720 B
1510 B 22.735150 13.421220 22.268180 B
1511 B 22.835530 12.949830 21.382980 B
1512 B 23.401580 13.055270 20.566440 B
1513 B 24.121560 13.686870 20.762150 B
1514 B 24.470500 14.522100 20.443530 B
1515 A -24.651150 14.835270 20.852720 A
1516 A -24.165980 14.114200 21.039920 A
1517 A -23.900330 13.211410 20.707480 A
1518 A -23.120730 12.697130 20.150680 A
1519 A -23.748560 13.127130 19.344480 A
1520 A -24.622440 13.387130 19.109420 A
1521 A 21.639610 -12.910230 3.606300 A
1522 A 20.860290 -13.213210 2.998789 A
1523 A 21.640130 -13.328440 2.478719 A
1524 A 22.489300 -13.869490 2.825653 A
1525 A 22.031780 -14.689950 2.966010 A
1526 A 22.201080 -15.154120 3.784196 A
1527 B 21.604160 -14.501550 4.241593 B
1528 B 21.035810 -14.690450 4.982857 B
1529 B 20.585860 -14.247710 5.625689 B
1530 B 20.170350 -15.123410 5.847989 B
1531 B 19.264690 -14.863240 6.009277 B
1532 B 19.319550 -13.919800 5.991215 B
1533 B 19.920510 -13.163500 6.128929 B
1534 A 19.961160 -12.471560 5.514539 A
1535 A 19.787360 -12.412600 4.550553 A
1536 A 20.123600 -12.405440 3.566934 A
1537 A 20.296560 -11.671070 2.993013 A
1538 A 20.037570 -11.144270 2.271180 A
1539 A 20.142120 -10.587380 1.427147 A
1540 A -23.807480 11.589640 6.211449 A
1541 A -23.009980 11.125640 6.004997 A
1542 A -22.400490 10.590690 5.581509 A
1543 A -21.696460 10.021390 5.418461 A
1544 A -22.383060 9.416925 5.156492 A
1545 A -23.007740 8.932828 4.583917 A
1546 B -23.359200 8.408070 3.892333 B
1547 B -23.549360 8.030394 3.073278 B
1548 B -23.916950 8.870802 2.723050 B
1549 B -24.559480 9.437357 2.200677 B
1550 B -23.632630 9.700547 2.058341 B
1551 B -22.719910 10.018700 1.886317 B
1552 B -21.847420 10.211410 2.258121 B
1553 A -21.052160 10.034390 2.738180 A
1554 A -20.390830 10.700090 2.922550 A
1555 A -19.533240 11.177900 3.157207 A
1556 A -19.013020 11.974490 3.140488 A
1557 A -18.828200 12.455250 2.386922 A
1558 A -18.750760 13.179900 1.733325 A
1559 A -20.434450 -3.063554 21.431850 A
1560 A -20.759110 -3.867395 21.054120 A
1561 A -21.629280 -4.177934 21.191390 A
1562 A -21.933210 -4.299126 22.087010 A
1563 A -21.482290 -4.364331 22.906090 A
1564 A -21.085850 -3.738296 23.528550 A
1565 B -21.645060 -2.910325 23.897690 B
1566 B -22.288820 -2.803609 23.173440 B
1567 B -22.891000 -3.393145 22.751080 B
1568 B -22.534760 -3.239629 21.832090 B
1569 B -22.536810 -2.987794 20.915330 B
1570 B -21.996270 -2.470969 20.323130 B
1571 B -21.324350 -2.375507 19.598080 B
1572 A -20.351620 -2.370751 19.589380 A
1573 A -19.511400 -1.923122 19.443890 A
1574 A -18.617040 -1.895270 19.812700 A
1575 A -18.249940 -2.799878 19.998130 A
1576 A -18.395340 -3.708405 20.227370 A
1577 A -18.571700 -4.620663 20.534230 A
1578 A -20.917470 20.945300 17.970620 A
1579 A -21.145450 21.649780 17.315830 A
1580 A -21.677970 22.358580 16.992700 A
1581 A -22.584350 22.660140 17.039470 A
1582 A -23.395210 23.078250 17.303220 A
1583 A -24.210400 23.208040 17.755980 A
1584 B -24.649510 22.618340 18.445710 B
1585 B -24.404870 22.032140 19.214900 B
1586 B -24.421870 21.092340 19.437540 B
1587 B -23.709160 20.465450 19.447280 B
1588 B -22.896620 20.063890 19.732830 B
1589 B -22.479810 19.320450 19.289140 B
1590 B -21.850100 18.829450 19.806150 B
1591 A -20.987720 18.549740 19.480720 A
1592 A -21.027510 18.269240 20.409110 A
1593 A -21.219260 18.517270 21.319000 A
1594 A -21.485730 19.098200 22.016760 A
1595 A -21.870540 19.963360 21.893940 A
1596 A -22.202910 20.825670 21.590510 A
1597 A 16.603630 23.960960 -11.555020 A
1598 A 16.536870 23.406440 -12.281620 A
1599 A 16.609020 22.819920 -13.013230 A
1600 A 17.378140 22.210100 -13.248330 A
1601 A 17.920860 21.693540 -12.642520 A
1602 A 18.255310 22.417970 -12.069390 A
1603 B 17.632970 22.597110 -11.341610 B
1604 B 17.268670 22.378470 -10.496040 B
1605 B 17.224170 21.441570 -10.341990 B
1606 B 17.297190 20.582820 -10.703650 B
1607 B 17.656300 19.714870 -10.395670 B
1608 B 18.237320 19.616180 -9.626756 B
1609 B 18.126550 20.507220 -9.279058 B
1610 A 18.103560 21.346840 -8.831203 A
1611 A 18.055060 22.266970 -8.879337 A
1612 A 18.836200 22.646580 -9.310687 A
1613 A 19.542270 22.322040 -9.911175 A
1614 A 19.618000 21.674400 -10.592920 A
1615 A 19.390670 21.067580 -11.328400 A
1616 A 17.806770 -7.229088 20.702240 A
1617 A 18.831300 -7.414390 20.797360 A
1618 A 19.429780 -6.748943 21.059060 A
1619 A 19.559710 -7.812664 21.234150 A
1620 A 19.363120 -8.648103 20.940910 A
1621 A 18.664250 -9.248051 20.793720 A
1622 B 17.803500 -9.662405 20.344630 B
1623 B 17.340180 -9.174377 20.873140 B
1624 B 16.842400 -9.269256 20.076880 B
1625 B 16.445190 -9.433487 19.241240 B
1626 B 15.671840 -9.895861 19.008160 B
1627 B 16.256400 -10.563550 19.302720 B
1628 B 16.288680 -11.146670 20.009080 B
1629 A 16.913570 -11.393260 20.722600 A
1630 A 17.419600 -11.528040 21.639940 A
1631 A 17.658280 -11.240570 22.537240 A
1632 A 17.620120 -11.595170 23.397900 A
1633 A 18.215810 -11.561730 24.187550 A
1634 A 18.386020 -11.749280 -24.621670 A
1635 A 23.519750 -5.982716 9.116460 A
1636 A 22.940170 -6.410147 8.481868 A
1637 A 22.705720 -6.946545 7.761541 A
1638 A 23.472150 -6.705345 7.265198 A
1639 A 24.372230 -6.458556 7.124231 A
1640 A 24.923160 -6.305209 7.876841 A
1641 B 24.403470 -6.521181 8.668859 B
1642 B 24.001340 -6.936068 9.454503 B
1643 B 24.098100 -7.501802 10.203040 B
1644 B 24.529110 -8.106918 10.796560 B
1645 B -24.932230 -8.946085 10.947660 B
1646 B -24.496090 -9.774497 11.109550 B
1647 B -24.217680 -9.881384 11.996390 B
1648 A -24.247120 -9.342676 12.799690 A
1649 A -24.906450 -8.779545 13.272490 A
1650 A -24.702250 -8.043894 13.853760 A
1651 A -24.523050 -7.532424 14.648230 A
1652 A -23.635820 -7.176212 14.829940 A
1653 A -22.769260 -7.025021 15.163950 A
1654 A -21.377450 17.828540 -11.654070 A
1655 A -20.662770 18.410390 -11.981940 A
1656 A -20.109060 19.036890 -12.346260 A
1657 A -19.657290 19.784320 -12.738190 A
1658 A -20.282660 20.347840 -13.217500 A
1659 A -20.994650 20.649200 -13.807890 A
1660 B -21.855460 20.613650 -14.228180 B
1661 B -22.531550 19.940990 -14.408160 B
1662 B -22.818880 19.563860 -13.570300 B
1663 B -22.427310 19.077630 -12.880680 B
1664 B -22.370360 19.783650 -12.209370 B
1665 B -22.556350 20.759910 -12.110170 B
1666 B -22.574460 21.556370 -11.602770 B
1667 A -22.182060 21.763190 -10.766070 A
1668 A -21.744360 21.930770 -9.948215 A
1669 A -20.964760 21.909540 -9.392056 A
1670 A -20.022750 21.729210 -9.355515 A
1671 A -19.964970 20.778630 -9.649081 A
1672 A -20.020050 20.410840 -10.541070 A
1673 A -3.001703 -2.877844 4.437942 A
1674 A -2.872476 -2.881863 5.434498 A
1675 A -2.475536 -2.148681 5.858662 A
1676 A -1.890441 -1.801860 5.268805 A
1677 A -1.694218 -1.398265 6.110068 A
1678 A -2.539613 -1.022184 6.236394 A
1679 B -3.282482 -0.425655 5.971875 B
1680 B -3.691526 0.335260 5.682950 B
1681 B -4.503651 -0.415282 5.790781 B
1682 B -5.113053 -1.120552 5.990792 B
1683 B -4.353152 -1.343490 6.434581 B
1684 B -4.064915 -1.023366 7.240029 B
1685 B -3.395080 -0.967806 7.932205 B
1686 A -2.497109 -0.720747 8.388637 A
1687 A -2.434871 -1.000485 9.291079 A
1688 A -2.613698 -0.445351 10.108600 A
1689 A -3.132321 0.009584 10.804750 A
1690 A -3.881338 -0.579994 10.668080 A
1691 A -4.499094 -1.292020 10.566450 A
1692 A 1.652547 14.560540 14.097350 A
1693 A 0.854359 14.657630 13.567300 A
1694 A -0.006207 15.021340 13.418330 A
1695 A -0.681090 15.731560 13.371280 A
1696 A -1.606843 15.753790 13.331560 A
1697 A -2.408906 15.886420 12.795420 A
1698 B -2.452643 15.757040 11.851930 B
1699 B -2.608045 16.543940 11.418640 B
1700 B -3.257188 17.187390 11.701160 B
1701 B -3.367140 17.397900 12.617870 B
1702 B -3.745790 17.358650 13.475410 B
1703 B -4.215452 17.977680 14.065260 B
1704 B -3.835747 18.747280 14.482660 B
1705 A -3.229125 19.503110 14.458040 A
1706 A -2.469237 19.771580 13.946190 A
1707 A -1.680350 19.237630 13.872820 A
1708 A -1.193061 18.464410 13.704110 A
1709 A -0.731074 17.784770 13.195330 A
1710 A -0.198046 17.143880 12.728630 A
1711 A 18.452060 -9.823803 -0.694000 A
1712 A 17.866000 -10.485890 -1.120811 A
1713 A 17.249450 -10.849880 -1.759645 A
1714 A 17.177930 -11.305200 -2.566669 A
1715 A 16.740190 -12.017150 -3.043780 A
1716 A 16.074210 -11.387080 -2.947527 A
1717 B 15.935470 -10.984080 -2.123334 B
1718 B 15.245380 -11.596150 -1.824549 B
1719 B 14.560120 -12.009020 -1.249264 B
1720 B 14.365320 -12.647340 -0.597068 B
1721 B 13.634960 -13.120340 -0.365134 B
1722 B 13.237910 -13.934710 -0.216654 B
1723 B 13.948870 -14.542620 0.034267 B
1724 A 14.647680 -14.228920 0.647274 A
1725 A 15.156130 -13.496130 1.026199 A
1726 A 14.727960 -12.675690 1.137488 A
1727 A 14.566720 -11.762600 1.264391 A
1728 A 14.999810 -10.974100 0.909817 A
1729 A 15.080390 -10.326450 0.194457 A
1730 A -21.952990 -13.686090 -14.003960 A
1731 A -21.055870 -13.900440 -14.259480 A
1732 A -20.318100 -14.434410 -14.451060 A
1733 A -19.840210 -15.257260 -14.438660 A
1734 A -19.814800 -16.170050 -14.708200 A
1735 A -20.049020 -17.175140 -14.567000 A
1736 B -20.587420 -17.683610 -13.887440 B
1737 B -21.435350 -17.988490 -13.589630 B
1738 B -22.246350 -17.635030 -13.303600 B
1739 B -22.541140 -17.166480 -12.535120 B
1740 B -21.844010 -16.336870 -12.504780 B
1741 B -21.690870 -15.361270 -12.785490 B
1742 B -20.953210 -14.792390 -12.443310 B
1743 A -20.111280 -14.545850 -11.933560 A
1744 A -19.210140 -14.554970 -11.827580 A
1745 A -18.615480 -14.422680 -12.541930 A
1746 A -17.962200 -14.353630 -13.239300 A
1747 A -17.515900 -14.415510 -14.087150 A
1748 A -17.273880 -14.818780 -14.962710 A
1749 A -0.438789 -1.088107 22.545960 A
1750 A 0.226346 -0.527667 22.167470 A
1751 A 1.085076 -0.124710 21.978680 A
1752 A 2.017145 -0.024352 21.924300 A
1753 A 2.471076 0.774196 22.250130 A
1754 A 2.537874 1.703527 22.431130 A
1755 B 2.485295 2.649713 22.362390 B
1756 B 1.738690 2.784506 21.777970 B
1757 B 1.049817 3.000922 21.155700 B
1758 B 0.793055 3.565104 20.429730 B
1759 B 0.960174 4.015190 19.581530 B
1760 B 1.701612 4.133509 18.975000 B
1761 B 2.495698 3.671974 18.780460 B
1762 A 2.888330 3.205143 18.017620 A
1763 A 2.593562 2.493931 17.479070 A
1764 A 2.571928 1.644871 17.029130 A
1765 A 2.703195 0.864465 16.482580 A
1766 A 2.847291 -0.062239 16.221330 A
1767 A 3.123163 -0.958314 15.937080 A
1768 A 10.805690 16.396610 8.558524 A
1769 A 11.776000 16.748290 8.664181 A
1770 A 12.266800 17.511330 8.269471 A
1771 A 13.069450 18.061960 8.293488 A
1772 A 13.425780 17.399340 8.814374 A
1773 A 13.453000 16.869120 9.586414 A
1774 B 13.433480 16.391290 10.400820 B
1775 B 13.449590 16.069890 11.277280 B
1776 B 13.295700 15.279140 11.706330 B
1777 B 13.458210 14.395550 11.403550 B
1778 B 13.454520 14.083990 10.447100 B
1779 B 13.319070 14.366710 9.545700 B
1780 B 12.400190 14.718770 9.442056 B
1781 A 11.828560 14.468930 8.693689 A
1782 A 11.843210 14.111050 7.791212 A
1783 A 11.555290 13.493060 7.130586 A
1784 A 11.676140 12.696810 6.565919 A
1785 A 12.035790 12.852730 5.690215 A
1786 A 12.225130 13.326580 4.834252 A
1787 A 8.535774 12.022940 1.074184 A
1788 A 8.359036 11.113550 1.177399 A
1789 A 8.556463 10.143580 1.271922 A
1790 A 9.522932 10.228440 1.255046 A
1791 A 10.223620 10.828140 1.550414 A
1792 A 9.621592 11.216110 2.175243 A
1793 B 9.061294 11.190930 2.944564 B
1794 B 8.643654 10.959550 3.786313 B
1795 B 8.255402 11.356020 4.586029 B
1796 B 7.732693 11.004510 5.304739 B
1797 B 7.278626 10.538170 5.980221 B
1798 B 6.376928 10.153160 5.942849 B
1799 B 5.507813 10.024990 5.482306 B
1800 A 5.240662 9.821924 4.625703 A
1801 A 5.634637 9.549548 3.784989 A
1802 A 6.471873 9.132302 3.689078 A
1803 A 7.132373 8.543291 4.054119 A
1804 A 7.679361 7.851942 4.442817 A
1805 A 8.119977 7.157836 4.890115 A
1806 A 10.753950 18.002830 -6.140081 A
1807 A 10.649760 17.021130 -6.060861 A
1808 A 10.407140 16.163940 -5.707698 A
1809 A 10.356780 16.110310 -4.737243 A
1810 A 9.838609 16.768880 -4.213027 A
1811 A 10.196350 17.508570 -4.744342 A
1812 B 9.362849 17.987920 -5.310053 B
1813 B 8.947535 18.611040 -4.473641 B
1814 B 8.235934 17.998130 -3.819973 B
1815 B 7.519867 17.985700 -4.391471 B
1816 B 7.455674 17.185900 -4.953691 B
1817 B 6.754266 16.251010 -4.729879 B
1818 B 7.873060 15.953230 -5.432979 B
1819 A 8.520792 15.377160 -5.175192 A
1820 A 9.135003 14.775650 -4.948110 A
1821 A 8.316380 14.370980 -5.064831 A
1822 A 7.754941 14.671910 -4.243506 A
1823 A 7.311790 14.118990 -3.557133 A
1824 A 7.608818 14.841690 -3.075300 A
1825 A 4.033539 22.138230 -14.670690 A
1826 A 3.989658 22.730300 -15.428060 A
1827 A 4.049322 23.555560 -15.908590 A
1828 A 4.701245 24.212150 -16.224190 A
1829 A 5.094273 -24.824660 -16.249200 A
1830 A 5.695274 -24.276090 -15.699100 A
1831 B 5.581907 -24.008800 -14.776520 B
1832 B 5.151452 -23.628260 -14.002300 B
1833 B 4.371207 -23.289910 -13.558950 B
1834 B 3.442667 -23.376460 -13.369070 B
1835 B 2.727481 -22.951480 -12.892380 B
1836 B 2.273333 -22.494960 -12.175550 B
1837 B 2.102311 -21.770460 -11.539310 B
1838 A 2.496487 -20.923360 -11.301630 A
1839 A 3.153837 -20.250290 -11.416260 A
1840 A 3.822865 -19.872140 -11.987270 A
1841 A 4.097407 -19.992240 -12.908900 A
1842 A 4.460825 -19.780440 -13.783930 A
1843 A 5.068406 -19.889460 -14.521250 A
1844 A 22.668440 19.514510 21.093110 A
1845 A 22.330560 20.146100 21.728510 A
1846 A 22.351920 21.061460 22.015210 A
1847 A 22.704990 21.952910 21.958660 A
1848 A 22.683860 22.926370 21.904240 A
1849 A 23.012600 23.415610 21.094050 A
1850 B 23.794920 23.387730 20.518650 B
1851 B 24.698010 23.545730 20.233550 B
1852 B -24.265680 23.682270 20.239200 B
1853 B -23.519770 24.310300 20.092670 B
1854 B -23.145160 -24.789250 19.724030 B
1855 B -23.467580 -24.342370 18.937710 B
1856 B -24.370500 -24.481410 18.688540 B
1857 A -24.882660 24.677940 18.303380 A
1858 A -24.883240 24.201390 17.458260 A
1859 A 24.287200 23.898820 16.878750 A
1860 A 23.484800 23.651800 16.445180 A
1861 A 22.742520 24.254700 16.665090 A
1862 A 22.257230 -24.853700 16.643260 A
1863 A 21.813700 -12.376690 12.125250 A
1864 A 21.176280 -12.878370 12.572900 A
1865 A 20.915200 -12.848230 13.484790 A
1866 A 20.727200 -12.694830 14.447780 A
1867 A 20.890950 -11.890270 14.939920 A
1868 A 20.749190 -11.520440 15.826990 A
1869 B 20.041610 -12.184330 15.814340 B
1870 B 19.715780 -13.067650 15.456680 B
1871 B 19.730600 -13.995560 15.398500 B
1872 B 18.807650 -14.088070 15.588960 B
1873 B 18.524310 -13.176820 15.589550 B
1874 B 18.445590 -12.358760 16.053970 B
1875 B 18.012270 -12.222700 16.908120 B
1876 A 17.066760 -12.196870 16.829100 A
1877 A 16.386710 -11.925860 16.239350 A
1878 A 16.373260 -11.804360 15.293150 A
1879 A 16.536740 -12.208430 14.423900 A
1880 A 15.794930 -12.608100 13.999440 A
1881 A 14.824260 -12.618190 13.850300 A
1882 A -19.010840 -16.381930 3.830703 A
1883 A -19.804960 -16.045840 4.307139 A
1884 A -19.529680 -15.115020 4.167826 A
1885 A -18.730940 -15.181330 3.597539 A
1886 A -17.990550 -15.359310 2.920445 A
1887 A -17.247900 -14.676860 2.865712 A
1888 B -17.122350 -13.842730 3.251502 B
1889 B -17.814130 -14.345500 3.727507 B
1890 B -16.966910 -14.099510 4.259197 B
1891 B -16.472330 -14.922270 4.875698 B
1892 B -16.080390 -15.552160 5.723926 B
1893 B -16.887880 -15.789010 5.223273 B
1894 B -17.742260 -15.928690 5.505284 B
1895 A -17.736040 -16.436210 6.392657 A
1896 A -17.048480 -17.200040 6.347429 A
1897 A -16.730520 -17.802060 5.795623 A
1898 A -17.708140 -17.758150 5.699233 A
1899 A -18.280240 -17.804030 6.481447 A
1900 A -19.139520 -17.688250 5.761729 A
1901 A 20.664360 -19.856920 -4.106413 A
1902 A 20.765370 -18.959970 -3.792516 A
1903 A 21.213890 -18.109170 -3.665886 A
1904 A 21.631150 -17.249470 -3.612576 A
1905 A 22.237100 -16.561870 -3.330045 A
1906 A 22.515400 -15.753190 -2.952639 A
1907 B 21.871790 -15.043460 -3.071119 B
1908 B 21.232990 -14.592790 -3.643938 B
1909 B 20.898120 -14.246620 -4.484735 B
1910 B 21.123460 -13.346610 -4.734550 B
1911 B 21.847860 -12.754410 -4.659579 B
1912 B 22.648680 -12.638240 -4.135005 B
1913 B 22.884150 -13.151590 -3.340348 B
1914 A 22.823430 -13.577080 -2.480029 A
1915 A 22.781050 -14.392910 -1.999848 A
1916 A 22.279440 -15.229650 -1.816288 A
1917 A 21.743110 -16.014380 -1.816007 A
1918 A 21.142290 -16.678340 -1.499526 A
1919 A 20.429140 -17.204390 -1.108041 A
1920 A -4.063707 -5.865952 -19.022320 A
1921 A -3.102087 -5.553280 -18.940430 A
1922 A -2.301434 -4.980324 -19.015730 A
1923 A -1.989861 -4.078376 -18.895520 A
1924 A -1.532991 -3.221349 -18.838420 A
1925 A -0.639928 -3.081416 -19.280230 A
1926 B 0.292882 -3.384912 -19.316190 B
1927 B 0.742602 -4.191418 -19.096410 B
1928 B 1.065250 -4.891364 -18.512290 B
1929 B 1.849884 -5.443901 -18.573670 B
1930 B 2.462549 -5.277093 -19.232390 B
1931 B 3.004395 -4.852582 -19.962580 B
1932 B 2.565341 -5.161293 -20.763380 B
1933 A 2.129636 -5.828992 -20.256310 A
1934 A 1.358872 -6.428659 -20.218460 A
1935 A 0.526364 -6.626065 -19.718870 A
1936 A -0.250997 -6.865719 -19.188220 A
1937 A -0.901625 -6.440049 -18.639070 A
1938 A -1.342955 -5.735778 -18.037440 A
1939 A 5.973734 10.048380 -18.760440 A
1940 A 6.924717 10.301250 -18.571830 A
1941 A 7.899958 10.216450 -18.633340 A
1942 A 8.393007 10.662800 -17.927850 A
1943 A 7.959481 11.399600 -17.498480 A
1944 A 7.868601 12.207640 -16.896460 A
1945 B 7.456940 12.836210 -16.256040 B
1946 B 7.337433 13.455210 -15.525420 B
1947 B 6.886728 13.955800 -14.815100 B
1948 B 6.640692 14.484460 -13.987650 B
1949 B 6.561837 15.170600 -13.292020 B
1950 B 5.962324 14.469330 -13.042830 B
1951 B 5.227432 13.949430 -13.337660 B
1952 A 4.714826 13.809750 -14.138240 A
1953 A 4.945089 14.149560 -15.045690 A
1954 A 5.036158 14.893530 -15.663770 A
1955 A 5.705750 15.552390 -15.844530 A
1956 A 6.352044 16.254400 -15.997190 A
1957 A 7.052963 16.484970 -16.601320 A
1958 A 6.518017 3.445530 -10.083310 A
1959 A 7.503141 3.332949 -10.209090 A
1960 A 8.262765 3.161572 -10.818640 A
1961 A 9.083528 3.287338 -11.263960 A
1962 A 9.588745 3.868608 -10.659350 A
1963 A 9.429097 4.815638 -10.432510 A
1964 B 8.771459 5.443138 -10.043950 B
1965 B 8.239614 6.078368 -9.626360 B
1966 B 8.512947 5.824344 -8.779007 B
1967 B 9.097442 5.710487 -8.051035 B
1968 B 9.881445 5.985994 -7.519968 B
1969 B 10.511590 6.304199 -6.907201 B
1970 B 10.978060 6.604592 -6.162097 B
1971 A 11.246600 6.739140 -5.230759 A
1972 A 11.750190 7.425275 -4.767761 A
1973 A 12.333270 7.521527 -5.585795 A
1974 A 13.062310 7.273806 -6.164258 A
1975 A 12.997580 7.134470 -7.008297 A
1976 A 13.590770 6.444954 -6.553945 A
1977 A -15.971150 3.892727 -20.903700 A
1978 A -16.833900 4.312417 -20.566470 A
1979 A -16.641600 5.118362 -21.157230 A
1980 A -16.935080 6.111773 -21.497090 A
1981 A -16.189690 6.639808 -21.325270 A
1982 A -15.472580 6.927499 -20.760660 A
1983 B -14.651590 6.479280 -20.804520 B
1984 B -14.876520 5.664707 -21.258820 B
1985 B -15.418640 5.513667 -21.998350 B
1986 B -15.533390 5.829136 -22.865280 B
1987 B -15.047760 6.642313 -23.004620 B
1988 B -14.449050 6.616184 -22.247710 B
1989 B -13.758100 6.394839 -21.609560 B
1990 A -12.838550 6.262405 -21.280930 A
1991 A -12.136740 6.318922 -21.951730 A
1992 A -12.190960 6.600491 -22.852700 A
1993 A -12.523200 7.496876 -23.025230 A
1994 A -12.915580 8.393775 -22.973370 A
1995 A -13.802620 8.743016 -22.675790 A
1996 A -7.595948 -18.025320 17.349600 A
1997 A -8.162822 -17.423130 16.940990 A
1998 A -8.625031 -17.158090 16.273920 A
1999 A -8.844344 -18.028260 16.504230 A
2000 A -8.056380 -18.447880 16.170180 A
2001 A -7.596225 -19.251790 15.890890 A
2002 B -7.278888 -18.453880 15.349400 B
2003 B -6.401517 -18.088290 15.349490 B
2004 B -5.735960 -17.707140 14.852260 B
2005 B -4.877151 -17.594070 14.525200 B
2006 B -4.226884 -17.657200 13.866410 B
2007 B -3.382558 -17.560650 14.201040 B
2008 B -2.897009 -16.731770 13.861900 B
2009 A -2.702919 -15.909640 14.337730 A
2010 A -2.635467 -15.018230 14.729490 A
2011 A -3.425315 -14.458420 14.718880 A
2012 A -4.347517 -14.440610 14.471320 A
2013 A -5.216722 -14.272400 14.061100 A
2014 A -6.058846 -14.133850 13.522030 A
2015 A -23.300460 -20.167090 -0.136562 A
2016 A -23.295680 -21.045180 0.140890 A
2017 A -23.373660 -21.955970 0.067524 A
2018 A -23.521810 -22.802550 -0.304801 A
2019 A -24.259340 -23.368290 -0.650728 A
2020 A -24.856580 -22.576960 -0.936898 A
2021 B 24.460070 -22.094060 -1.446790 B
2022 B 24.013610 -21.331850 -1.821046 B
2023 B 24.067820 -21.021140 -0.949440 B
2024 B 24.840650 -20.519940 -1.150117 B
2025 B 24.305250 -19.922840 -1.501826 B
2026 B 23.628160 -19.950430 -2.230141 B
2027 B 24.098170 -20.646800 -2.680706 B
2028 A 24.740730 -21.023410 -3.270617 A
2029 A 24.520600 -21.735310 -3.772385 A
2030 A 24.154710 -21.256070 -4.470684 A
2031 A 24.371910 -21.002230 -5.373366 A
2032 A 23.682810 -21.397430 -5.902197 A
2033 A 23.641690 -20.477780 -6.209692 A
2034 A -1.278051 -6.483987 -24.679700 A
2035 A -0.860867 -6.549981 24.367970 A
2036 A -1.437431 -6.440162 23.557310 A
2037 A -1.765952 -7.065001 22.892490 A
2038 A -2.651673 -7.404154 22.796370 A
2039 A -3.466414 -7.896089 22.641890 A
2040 B -4.000703 -8.722105 22.758130 B
2041 B -3.573780 -9.023712 23.540950 B
2042 B -3.297998 -9.141889 24.437770 B
2043 B -3.129651 -9.154902 -24.513780 B
2044 B -3.231953 -8.883625 -23.627240 B
2045 B -3.773700 -8.740675 -22.835710 B
2046 B -2.957953 -8.289659 -22.658150 B
2047 A -3.145603 -7.398259 -22.995660 A
2048 A -2.690759 -6.661869 -23.515390 A
2049 A -3.236953 -5.929844 -24.103870 A
2050 A -3.206671 -5.419250 -23.164220 A
2051 A -2.901347 -5.674539 -22.054820 A
2052 A -3.267770 -5.236936 -21.350990 A
2053 A -17.632380 7.914995 22.248470 A
2054 A -17.589700 7.261504 22.853050 A
2055 A -18.395790 7.023153 23.027630 A
2056 A -18.803760 6.263784 22.948960 A
2057 A -19.643650 5.610271 23.139890 A
2058 A -19.800530 5.312535 24.157510 A
2059 B -19.824810 4.378774 24.722900 B
2060 B -19.689310 3.558305 24.221900 B
2061 B -18.686710 3.425162 23.909000 B
2062 B -18.716770 4.461563 23.648250 B
2063 B -18.305230 5.213991 23.177120 B
2064 B -17.409200 5.528008 23.296470 B
2065 B -17.219400 6.278021 23.787810 B
2066 A -16.571310 6.737863 24.423380 A
2067 A -17.007750 6.311171 -24.679300 A
2068 A -17.304940 6.691941 -23.912210 A
2069 A -17.923080 7.301697 -23.497800 A
2070 A -17.859900 7.970318 -24.177080 A
2071 A -17.862330 8.601066 -24.941440 A
2072 A 10.890640 23.924610 -17.834150 A
2073 A 10.570470 24.601310 -18.388720 A
2074 A 9.934003 -24.756590 -18.789610 A
2075 A 9.689763 -23.871310 -19.277190 A
2076 A 9.670955 -22.982920 -19.352500 A
2077 A 9.342057 -22.256480 -19.847350 A
2078 B 9.086013 -22.959450 -20.432990 B
2079 B 9.159871 -22.476290 -21.230210 B
2080 B 8.242052 -22.386960 -21.343710 B
2081 B 7.933677 -22.104920 -22.264840 B
2082 B 7.382435 -21.289400 -22.168550 B
2083 B 7.249464 -20.417820 -21.848320 B
2084 B 7.275470 -19.701890 -22.423960 B
2085 A 8.217861 -19.556370 -22.691020 A
2086 A 8.453201 -20.460800 -22.547520 A
2087 A 8.862976 -21.330540 -22.657260 A
2088 A 9.250924 -21.317410 -23.532190 A
2089 A 10.047370 -20.909680 -23.928360 A
2090 A 10.581230 -20.362340 -24.540810 A
2091 A 11.431430 -24.521820 15.261590 A
2092 A 11.168280 -24.101540 14.518040 A
2093 A 12.081900 -23.690590 14.779990 A
2094 A 12.199970 -23.057670 14.194980 A
2095 A 12.608850 -22.534990 13.520310 A
2096 A 12.290020 -21.937970 12.854420 A
2097 B 11.325170 -21.790820 13.045020 B
2098 B 10.320610 -21.820760 13.122130 B
2099 B 10.494270 -22.005180 14.053730 B
2100 B 10.821780 -22.945070 14.153110 B
2101 B 9.992764 -23.215020 14.619510 B
2102 B 9.798751 -23.045400 15.569390 B
2103 B 10.532550 -22.787620 16.109260 B
2104 A 11.452220 -22.780280 16.370890 A
2105 A 12.329750 -23.267060 16.491750 A
2106 A 12.823740 -24.030220 16.480300 A
2107 A 12.503310 -24.527990 17.238290 A
2108 A 12.212910 -24.346410 18.136040 A
2109 A 11.687660 -23.912630 18.780580 A
2110 A 6.325467 -22.349210 -2.962341 A
2111 A 6.332369 -21.986620 -2.107366 A
2112 A 6.351695 -22.296390 -1.193445 A
2113 A 6.083449 -22.411810 -0.285228 A
2114 A 5.266557 -21.920800 -0.019923 A
2115 A 4.601915 -21.667850 0.664001 A
2116 B 3.727220 -21.398820 0.916246 B
2117 B 3.085037 -20.751550 0.773613 B
2118 B 2.844921 -21.106490 -0.050025 B
2119 B 2.521773 -21.599110 -0.833277 B
2120 B 3.242762 -21.243310 -1.400917 B
2121 B 3.369307 -21.265830 -2.364125 B
2122 B 3.244475 -21.736850 -3.222710 B
2123 A 2.975978 -22.644920 -2.932497 A
2124 A 2.145576 -23.187440 -2.913527 A
2125 A 1.598307 -23.865800 -3.350789 A
2126 A 1.248907 -24.179510 -4.159720 A
2127 A 1.170311 24.955220 -4.760216 A
2128 A 1.475545 24.057090 -5.158889 A
2129 A -22.076300 -15.086870 -3.473979 A
2130 A -21.764520 -15.995370 -3.418804 A
2131 A -21.260520 -16.800620 -3.450110 A
2132 A -20.502750 -17.426620 -3.379190 A
2133 A -19.611640 -17.607320 -3.083506 A
2134 A -18.710420 -17.689820 -2.737293 A
2135 B -18.890070 -17.672770 -1.822939 B
2136 B -19.073060 -17.038050 -1.116018 B
2137 B -19.920740 -17.311320 -0.732335 B
2138 B -20.411530 -16.484800 -0.601866 B
2139 B -20.591090 -15.931080 -1.413540 B
2140 B -19.809460 -15.846570 -1.954607 B
2141 B -19.336490 -15.580180 -2.766029 B
2142 A -18.452410 -15.449740 -3.291039 A
2143 A -18.408780 -14.680050 -2.779926 A
2144 A -18.148920 -13.825410 -2.403352 A
2145 A -18.718910 -13.024330 -2.352150 A
2146 A -19.583010 -12.860830 -2.852885 A
2147 A -20.352640 -12.885450 -3.436634 A
2148 A -18.823370 -17.429680 -6.482506 A
2149 A -19.752220 -17.222330 -6.432306 A
2150 A -19.645610 -17.390550 -5.451892 A
2151 A -19.682130 -17.889700 -4.599669 A
2152 A -19.826970 -18.667340 -4.048088 A
2153 A -20.593340 -19.058560 -4.531808 A
2154 B -21.424220 -19.188820 -5.022788 B
2155 B -22.228120 -18.989130 -5.520300 B
2156 B -23.084520 -18.910450 -5.105675 B
2157 B -22.588540 -19.593750 -4.590301 B
2158 B -22.860590 -19.488140 -3.645420 B
2159 B -23.420240 -19.035060 -3.025217 B
2160 B -24.168050 -18.442820 -2.941067 B
2161 A -24.274820 -17.597620 -3.418043 A
2162 A -23.651460 -16.828060 -3.342911 A
2163 A -23.205790 -16.499180 -2.551076 A
2164 A -22.642400 -16.191390 -1.866894 A
2165 A -22.410870 -15.496900 -1.213578 A
2166 A -22.393640 -14.891870 -0.466489 A
2167 A 13.729430 -20.290530 5.278285 A
2168 A 13.579360 -19.371810 5.143468 A
2169 A 14.246580 -19.029150 5.710086 A
2170 A 14.809370 -19.413180 6.377798 A
2171 A 14.986730 -19.865160 7.208703 A
2172 A 15.363560 -20.307850 7.934185 A
2173 B 16.162790 -20.738490 8.341918 B
2174 B 16.933780 -21.303510 8.549174 B
2175 B 16.820500 -22.088880 7.978657 B
2176 B 16.042170 -21.866710 7.507278 B
2177 B 15.104410 -21.902710 7.260570 B
2178 B 14.227790 -21.912910 7.593053 B
2179 B 13.368000 -21.961930 7.996352 B
2180 A 12.973020 -21.870690 8.905040 A
2181 A 12.655450 -21.122790 9.366794 A
2182 A 12.976780 -20.249820 9.126172 A
2183 A 12.707210 -20.515740 8.223272 A
2184 A 12.624730 -20.967660 7.406608 A
2185 A 13.111570 -21.295530 6.658390 A
2186 A -2.903584 4.198994 1.313704 A
2187 A -3.663743 4.001271 0.699458 A
2188 A -3.183268 4.156024 -0.051775 A
2189 A -2.386878 4.648256 0.150237 A
2190 A -2.090698 3.745748 0.328089 A
2191 A -1.674189 2.927270 0.592928 A
2192 B -2.380413 2.786634 1.221927 B
2193 B -3.141595 1.975619 1.228845 B
2194 B -3.199560 1.061901 1.465835 B
2195 B -2.221919 1.001960 1.376025 B
2196 B -1.435622 1.420146 1.138928 B
2197 B -0.671405 1.919278 0.972813 B
2198 B -0.113969 1.210672 0.781813 B
2199 A 0.408951 0.452901 0.614968 A
2200 A 0.408395 0.243042 1.527908 A
2201 A 0.349067 0.298125 2.456607 A
2202 A 0.769153 1.195942 2.529003 A
2203 A 1.158204 2.137703 2.640538 A
2204 A 1.613656 2.931542 2.457165 A
2205 A -7.049875 16.003500 -3.960251 A
2206 A -7.128557 15.108120 -4.369688 A
2207 A -7.089499 14.343700 -5.001872 A
2208 A -7.553418 13.830810 -5.715342 A
2209 A -8.107673 13.638970 -4.936577 A
2210 A -8.829360 13.773540 -4.344920 A
2211 B -9.493576 14.018340 -5.016247 B
2212 B -10.244000 13.738290 -5.648041 B
2213 B -10.700410 13.017520 -5.250552 B
2214 B -11.336240 12.431490 -4.818945 B
2215 B -11.838900 13.152340 -4.504595 B
2216 B -11.914790 14.083380 -4.390788 B
2217 B -11.324650 14.840110 -4.231901 B
2218 A -10.401120 14.616670 -4.112970 A
2219 A -10.231260 14.313100 -3.177396 A
2220 A -10.671800 14.416050 -2.318349 A
2221 A -11.487150 14.856070 -2.453133 A
2222 A -11.830300 15.798780 -2.415239 A
2223 A -11.784790 16.707660 -1.972715 A
2224 A 0.093270 19.268640 -11.592560 A
2225 A 0.307778 19.644870 -12.625300 A
2226 A 0.309567 20.405630 -13.228890 A
2227 A -0.128641 19.653760 -13.844290 A
2228 A -0.375695 19.016080 -14.608720 A
2229 A -0.662488 18.200800 -14.768530 A
2230 B -0.618920 17.337280 -14.558500 B
2231 B -1.162690 16.758930 -13.847650 B
2232 B -1.048320 15.985040 -14.415990 B
2233 B -1.734683 15.601980 -15.003560 B
2234 B -2.504729 15.384500 -15.578790 B
2235 B -2.077554 16.121940 -16.041320 B
2236 B -2.447161 16.916280 -15.619070 B
2237 A -2.850887 16.787630 -16.473760 A
2238 A -2.513788 17.218470 -17.362700 A
2239 A -2.723172 16.671260 -18.146860 A
2240 A -1.841249 16.903800 -18.056370 A
2241 A -0.927812 16.546420 -18.144850 A
2242 A -0.988786 15.576070 -18.105090 A
2243 A -6.588015 -4.589036 18.659950 A
2244 A -7.331566 -4.026184 18.537110 A
2245 A -7.706102 -3.235832 18.107570 A
2246 A -8.422909 -2.587508 17.858820 A
2247 A -8.874420 -1.813120 17.446520 A
2248 A -9.060818 -1.090474 16.832340 A
2249 B -8.350482 -0.667041 16.386490 B
2250 B -7.782745 -0.039176 15.957500 B
2251 B -7.070219 -0.092980 16.574110 B
2252 B -6.551690 -0.650581 17.153510 B
2253 B -6.599020 -1.253261 17.921720 B
2254 B -6.197042 -1.982243 18.421280 B
2255 B -6.045016 -2.699908 19.050460 B
2256 A -5.402215 -3.184807 19.578010 A
2257 A -4.691806 -3.456052 20.176420 A
2258 A -3.935429 -4.032178 20.044820 A
2259 A -3.163451 -4.441585 20.421230 A
2260 A -2.308724 -4.761516 20.756740 A
2261 A -1.454405 -4.918973 21.147900 A
2262 A 23.333830 10.554550 2.440291 A
2263 A 23.651660 9.792965 2.977855 A
2264 A 23.585200 9.032310 3.583825 A
2265 A 23.811010 8.226667 3.107080 A
2266 A 23.843550 7.280900 3.273076 A
2267 A 23.797090 6.766189 2.492068 A
2268 B 23.233600 6.279811 1.915842 B
2269 B 22.990420 6.569380 1.002308 B
2270 B 22.056730 6.787734 0.824123 B
2271 B 21.134210 7.056342 0.632416 B
2272 B 20.517220 7.707948 0.289740 B
2273 B 20.680410 8.595173 -0.005239 B
2274 B 21.594160 8.662337 -0.326874 B
2275 A 22.496480 8.871658 -0.189651 A
2276 A 23.437490 8.986509 0.026202 A
2277 A 23.670690 9.289832 0.878454 A
2278 A 23.384780 9.472504 1.824093 A
2279 A 22.696640 8.911692 2.141115 A
2280 A 22.285680 8.009623 2.184988 A
2281 A 11.886990 -24.087440 8.557722 A
2282 A 11.228920 -24.235650 7.895915 A
2283 A 10.392930 -24.300630 7.345179 A
2284 A 10.457220 -24.713910 6.453514 A
2285 A 9.608305 -24.249740 6.218984 A
2286 A 9.556574 -23.414590 6.625776 A
2287 B 8.883134 -22.954110 7.254544 B
2288 B 8.888382 -22.234270 7.903790 B
2289 B 8.277176 -21.504000 7.797116 B
2290 B 7.939734 -20.820280 8.429067 B
2291 B 7.420660 -20.261230 9.092253 B
2292 B 6.969480 -20.386960 9.907894 B
2293 B 7.792289 -20.891270 10.419780 B
2294 A 8.502081 -21.577120 10.422950 A
2295 A 8.871079 -22.299140 10.021900 A
2296 A 9.705260 -22.083240 9.463991 A
2297 A 9.956341 -22.372900 8.602298 A
2298 A 10.704760 -22.282720 8.076443 A
2299 A 11.020960 -21.630840 8.864125 A
2300 A 9.929228 -24.024840 -14.553540 A
2301 A 9.235900 -24.431990 -14.000750 A
2302 A 9.312557 24.616060 -13.544430 A
2303 A 9.127963 23.763290 -13.766370 A
2304 A 9.034533 22.899060 -14.041740 A
2305 A 9.185661 22.108480 -13.500390 A
2306 B 9.491104 21.290700 -13.059700 B
2307 B 10.210380 21.141670 -12.375230 B
2308 B 10.017520 20.317840 -11.838760 B
2309 B 9.567668 19.568060 -12.395920 B
2310 B 8.562224 19.419850 -12.599210 B
2311 B 8.687403 18.821370 -13.375760 B
2312 B 8.168992 19.176660 -14.092800 B
2313 A 7.699194 18.403620 -13.710630 A
2314 A 7.006289 17.873730 -13.549470 A
2315 A 6.528327 18.631250 -13.753530 A
2316 A 6.598325 19.523200 -13.677490 A
2317 A 7.005009 20.403940 -13.522980 A
2318 A 7.607896 21.119980 -13.269720 A
2319 A -22.736690 -8.518634 7.651637 A
2320 A -23.205550 -8.586035 6.788279 A
2321 A -23.290110 -8.463720 5.838910 A
2322 A -23.272120 -7.569819 5.528132 A
2323 A -23.160940 -7.439522 6.588352 A
2324 A -22.264970 -7.244236 6.294634 A
2325 B -21.621570 -7.409431 5.551415 B
2326 B -21.228940 -8.134507 5.075343 B
2327 B -20.402170 -7.592451 4.857577 B
2328 B -20.525430 -7.442168 3.912424 B
2329 B -20.092160 -7.418171 2.958026 B
2330 B -20.638930 -8.179333 2.810271 B
2331 B -21.594560 -8.308880 2.929478 B
2332 A -22.518980 -8.089922 3.136138 A
2333 A -23.302380 -7.661725 3.374443 A
2334 A -24.143070 -7.291809 3.668581 A
2335 A -24.891310 -7.529103 4.241892 A
2336 A -24.866790 -8.434374 3.778596 A
2337 A 24.738830 -9.366985 3.804595 A
2338 A 5.949027 22.093980 -11.585690 A
2339 A 5.078587 21.686670 -11.653340 A
2340 A 4.318967 22.221320 -11.691560 A
2341 A 3.562042 22.800030 -11.782020 A
2342 A 3.129701 23.648660 -11.949860 A
2343 A 2.738923 24.369450 -12.317390 A
2344 B 1.778525 24.506500 -12.388940 B
2345 B 0.862002 24.176400 -12.214490 B
2346 B 0.569710 23.307000 -12.442250 B
2347 B -0.214890 22.871650 -12.813210 B
2348 B -1.155569 22.758280 -12.604390 B
2349 B -1.267932 22.494690 -11.720190 B
2350 B -0.491944 22.416210 -11.060760 B
2351 A 0.299908 22.809700 -10.725670 A
2352 A 1.187875 22.896120 -10.329230 A
2353 A 1.859353 23.386220 -9.877083 A
2354 A 2.842297 23.480190 -9.918669 A
2355 A 3.390399 24.238280 -10.189860 A
2356 A 4.107167 24.080190 -10.772280 A
2357 A -10.748330 -13.073480 -19.008200 A
2358 A -11.208830 -13.438090 -19.801340 A
2359 A -11.829680 -13.537740 -20.540020 A
2360 A -12.755550 -13.335270 -20.679940 A
2361 A -13.591900 -13.338090 -20.226030 A
2362 A -14.085510 -12.623190 -19.887100 A
2363 B -14.169320 -11.824590 -19.389910 B
2364 B -13.678060 -12.081500 -18.626900 B
2365 B -13.579560 -11.694030 -17.802720 B
2366 B -13.524500 -12.326850 -17.121170 B
2367 B -13.440980 -12.915800 -16.320320 B
2368 B -13.942770 -12.477540 -15.683440 B
2369 B -14.811130 -12.064110 -15.337730 B
2370 A -15.535220 -12.066380 -15.968390 A
2371 A -15.992390 -12.849550 -16.280950 A
2372 A -16.463370 -13.656270 -16.239750 A
2373 A -16.502200 -13.828020 -15.280990 A
2374 A -16.281040 -14.200420 -14.350900 A
2375 A -15.943220 -14.545920 -13.521440 A
2376 A 15.928100 12.844090 1.489411 A
2377 A 15.520980 12.021320 1.475665 A
2378 A 14.897800 11.289240 1.472574 A
2379 A 14.178430 10.610360 1.508439 A
2380 A 13.340060 10.149090 1.601897 A
2381 A 12.642500 10.513050 2.134256 A
2382 B 11.841100 11.014710 2.330512 B
2383 B 11.301020 11.807700 2.149669 B
2384 B 10.788600 12.501480 1.652184 B
2385 B 10.672170 13.245970 1.059213 B
2386 B 10.808340 13.646310 0.195439 B
2387 B 10.666110 13.717720 -0.755575 B
2388 B 11.154930 13.473680 -1.557639 B
2389 A 12.140630 13.303920 -1.607252 A
2390 A 12.463340 12.492770 -1.234888 A
2391 A 12.826640 11.611980 -1.194799 A
2392 A 12.920480 11.138990 -2.088127 A
2393 A 12.247980 11.316410 -2.823936 A
2394 A 12.091410 12.101440 -3.378579 A
2395 A 6.436477 -23.272850 -21.135690 A
2396 A 6.137026 -22.502810 -21.568260 A
2397 A 5.611716 -21.803830 -21.863740 A
2398 A 4.716572 -21.810420 -22.155710 A
2399 A 3.934739 -22.122180 -21.610140 A
2400 A 3.358539 -21.556250 -21.097420 A
2401 B 3.007258 -20.985240 -20.431180 B
2402 B 3.864446 -20.743900 -19.999180 B
2403 B 4.776850 -20.525640 -19.886470 B
2404 B 5.083599 -19.799000 -19.344930 B
2405 B 5.532147 -19.012690 -18.998880 B
2406 B 4.861980 -18.484700 -19.489720 B
2407 B 3.949124 -18.288170 -19.162560 B
2408 A 3.248464 -18.713850 -19.650940 A
2409 A 3.052123 -19.156710 -20.479960 A
2410 A 3.950844 -19.254450 -20.804470 A
2411 A 4.664982 -18.727910 -21.257160 A
2412 A 5.134929 -18.209650 -21.912640 A
2413 A 5.629226 -17.819760 -22.613170 A
2414 A 9.784991 0.780274 -9.669544 A
2415 A 9.222160 0.446081 -8.906330 A
2416 A 8.823920 -0.047331 -8.137091 A
2417 A 7.852214 -0.236032 -8.196507 A
2418 A 7.462943 -0.913341 -8.734817 A
2419 A 7.839946 -1.416936 -9.464013 A
2420 B 8.376103 -2.179651 -9.581551 B
2421 B 9.276417 -2.362605 -9.293806 B
2422 B 9.958086 -1.859278 -8.841450 B
2423 B 10.379780 -1.099473 -8.395281 B
2424 B 10.781400 -0.556171 -7.689213 B
2425 B 11.476520 0.042779 -7.330033 B
2426 B 12.222490 0.563715 -7.017641 B
2427 A 12.829990 1.091421 -6.518604 A
2428 A 13.687920 1.382000 -6.192285 A
2429 A 14.374760 1.729779 -5.628515 A
2430 A 14.883590 2.317566 -5.044160 A
2431 A 15.423120 2.888937 -4.466345 A
2432 A 16.071830 3.293997 -3.865076 A
2433 A -18.520170 21.019620 -21.490270 A
2434 A -18.692720 21.921030 -21.745230 A
2435 A -18.827390 22.592610 -22.488010 A
2436 A -18.495710 23.222860 -23.091050 A
2437 A -17.917270 23.669910 -23.804490 A
2438 A -17.403060 24.493930 -23.645120 A
2439 B -17.542010 -24.562000 -23.468550 B
2440 B -17.206280 -23.903110 -22.796220 B
2441 B -16.336730 -23.524130 -22.524660 B
2442 B -15.736260 -23.570490 -23.319690 B
2443 B -15.598880 -24.301720 -23.921850 B
2444 B -15.910070 -24.932690 -24.615620 B
2445 B -16.700020 -24.910470 24.718070 B
2446 A -17.189200 24.369150 24.189620 A
2447 A -17.985150 24.757460 23.913220 A
2448 A -18.801070 -24.750830 23.626790 A
2449 A -19.581010 -24.564490 23.160890 A
2450 A -19.926930 -24.011800 22.453700 A
2451 A -20.012030 -23.093000 22.202870 A
2452 A 0.667830 19.716550 -16.896910 A
2453 A 0.040163 20.406580 -16.725470 A
2454 A -0.002219 21.280180 -16.344580 A
2455 A -0.196146 21.387890 -17.340430 A
2456 A -0.079666 21.497960 -18.284590 A
2457 A -0.113138 21.324020 -19.242750 A
2458 B -0.487105 20.853080 -20.043260 B
2459 B -0.702101 20.234770 -20.789590 B
2460 B -0.349522 19.461270 -20.265160 B
2461 B -0.801818 18.645760 -20.014800 B
2462 B -1.403623 19.335780 -19.799190 B
2463 B -1.698925 20.273010 -19.956300 B
2464 B -2.284135 20.475880 -20.689070 B
2465 A -2.758572 19.632280 -20.741750 A
2466 A -3.440266 19.443370 -20.091640 A
2467 A -4.016188 19.604430 -19.323390 A
2468 A -4.944464 19.482160 -19.022650 A
2469 A -5.883881 19.405230 -18.703400 A
2470 A -6.685030 19.581860 -18.255730 A
2471 A 19.544550 14.042860 -23.436510 A
2472 A 20.219170 14.101630 -24.139390 A
2473 A 20.692800 14.371130 -24.937240 A
2474 A 21.572650 14.419820 24.648960 A
2475 A 22.350770 14.099880 -24.825690 A
2476 A 23.034600 13.552430 -24.409810 A
2477 B 23.149250 12.674700 -23.908690 B
2478 B 23.020980 11.717010 -23.810380 B
2479 B 22.337870 11.555400 -24.481440 B
2480 B 21.668870 11.792930 24.805930 B
2481 B 20.892940 11.971280 24.268660 B
2482 B 20.116840 12.057880 23.713380 B
2483 B 19.525050 12.631630 23.217050 B
2484 A 19.083790 13.173850 22.610790 A
2485 A 18.763750 13.104740 21.737860 A
2486 A 18.669750 12.904960 20.817360 A
2487 A 19.302790 12.252230 20.946490 A
2488 A 19.765130 11.480320 21.334390 A
2489 A 20.029990 10.731970 21.906540 A
2490 A 20.460820 -1.529807 13.535720 A
2491 A 21.375990 -1.504356 13.258270 A
2492 A 22.019900 -1.677625 13.964750 A
2493 A 21.583820 -1.288418 14.714470 A
2494 A 21.516250 -0.514559 15.360870 A
2495 A 22.384550 -0.156937 15.192610 A
2496 B 23.001230 0.584805 14.971610 B
2497 B 23.175160 1.393463 14.411300 B
2498 B 22.374600 1.704541 14.871820 B
2499 B 21.941900 2.553698 15.113720 B
2500 B 22.010770 3.407650 15.521140 B
2501 B 22.435490 3.052453 16.312690 B
2502 B 22.020830 2.241210 16.709230 B
2503 A 21.781420 1.405327 17.126210 A
2504 A 22.728860 1.310571 16.888570 A
2505 A 23.151140 1.829757 16.165040 A
2506 A 23.595900 2.647748 15.991300 A
2507 A 24.005840 3.473958 15.886670 A
2508 A 23.784710 3.881309 15.068620 A
2509 A -15.728320 -4.312352 -6.836632 A
2510 A -16.294670 -3.548462 -6.757912 A
2511 A -17.204160 -3.604260 -6.548262 A
2512 A -17.721450 -2.916856 -6.060757 A
2513 A -17.165270 -2.173394 -6.287558 A
2514 A -16.268440 -1.885199 -6.169856 A
2515 B -15.437000 -1.481024 -6.351768 B
2516 B -15.450820 -1.053923 -7.170703 B
2517 B -15.805750 -1.621734 -7.850916 B
2518 B -16.127380 -2.021922 -8.699919 B
2519 B -16.233850 -2.935632 -9.082662 B
2520 B -16.293330 -3.968284 -8.834626 B
2521 B -15.886960 -4.703481 -9.288649 B
2522 A -15.827520 -4.890378 -10.215240 A
2523 A -15.999880 -5.020686 -11.121870 A
2524 A -16.663210 -5.440625 -11.652310 A
2525 A -17.449480 -5.599353 -12.246940 A
2526 A -18.429630 -5.671821 -12.181410 A
2527 A -19.264420 -6.134898 -12.457270 A
2528 A 10.298380 -4.417804 -8.329803 A
2529 A 9.441065 -4.284628 -8.547514 A
2530 A 8.765547 -4.683756 -9.146369 A
2531 A 7.836737 -4.884060 -8.801090 A
2532 A 7.082389 -5.232739 -8.294723 A
2533 A 6.212020 -5.652067 -7.894055 A
2534 B 6.246319 -6.497899 -7.675504 B
2535 B 6.852323 -6.792541 -7.063564 B
2536 B 7.470864 -6.907688 -6.431962 B
2537 B 8.179395 -6.129272 -6.375645 B
2538 B 8.759536 -5.267318 -6.556520 B
2539 B 9.498739 -5.810924 -6.394047 B
2540 B 9.267964 -6.737514 -6.228395 B
2541 A 9.249781 -6.931652 -7.185472 A
2542 A 9.593417 -7.323627 -8.000620 A
2543 A 8.806418 -7.395797 -8.606153 A
2544 A 8.227394 -7.028173 -9.214293 A
2545 A 7.397452 -7.455355 -9.426634 A
2546 A 6.520265 -7.800807 -9.270640 A
2547 A 6.296918 -18.450900 -9.772516 A
2548 A 5.886106 -17.551810 -9.460891 A
2549 A 5.241876 -17.087320 -8.996923 A
2550 A 5.397838 -17.904990 -8.244601 A
2551 A 4.728735 -18.323140 -8.924994 A
2552 A 3.843417 -18.600940 -9.192424 A
2553 B 3.054646 -18.926010 -8.807218 B
2554 B 2.742259 -19.053840 -7.917285 B
2555 B 2.537615 -18.602580 -7.076291 B
2556 B 2.401886 -17.670440 -7.290989 B
2557 B 3.311318 -17.592390 -7.052936 B
2558 B 3.803823 -16.851250 -6.911902 B
2559 B 3.960355 -15.936860 -7.102939 B
2560 A 4.115711 -15.046360 -7.193298 A
2561 A 3.510449 -14.282720 -7.274089 A
2562 A 2.687076 -14.151280 -7.697546 A
2563 A 1.970702 -14.748190 -7.675068 A
2564 A 1.904710 -15.658440 -8.059765 A
2565 A 2.148398 -16.490800 -8.586686 A
2566 A 19.843690 7.824207 6.385856 A
2567 A 19.289250 7.480091 5.706932 A
2568 A 19.247740 7.413396 4.788718 A
2569 A 19.337180 7.235524 3.888930 A
2570 A 20.252140 7.090767 3.715219 A
2571 A 21.158380 6.609647 3.696373 A
2572 B 20.552830 6.175838 3.083870 B
2573 B 19.869110 5.742203 2.588351 B
2574 B 19.887390 5.324506 1.688295 B
2575 B 20.602180 5.206470 1.049361 B
2576 B 21.247160 5.549948 0.448085 B
2577 B 21.910070 5.752427 -0.213580 B
2578 B 21.642940 6.247409 -1.015399 B
2579 A 21.172400 5.890789 -1.820972 A
2580 A 21.531780 5.002026 -1.846956 A
2581 A 21.770340 4.142303 -2.129723 A
2582 A 22.415540 3.492071 -2.380507 A
2583 A 22.956500 3.583079 -3.124365 A
2584 A 22.905210 4.340175 -3.726563 A
2585 A 12.615450 -4.781765 -4.036451 A
2586 A 12.715810 -5.047354 -3.123961 A
2587 A 12.839210 -5.321624 -2.197801 A
2588 A 13.286620 -5.666821 -1.435111 A
2589 A 13.591810 -5.084033 -0.771951 A
2590 A 14.014900 -4.452068 -0.170493 A
2591 B 14.961810 -4.343517 -0.103040 B
2592 B 15.808280 -3.868882 -0.075099 B
2593 B 16.586810 -3.677857 -0.579375 B
2594 B 16.813370 -3.808048 -1.495998 B
2595 B 15.996130 -4.288697 -1.654560 B
2596 B 15.746190 -4.866160 -2.379488 B
2597 B 15.062110 -5.217040 -1.822998 B
2598 A 15.249920 -5.790596 -1.088818 A
2599 A 15.276700 -6.271524 -0.219301 A
2600 A 15.479250 -6.208783 0.703673 A
2601 A 15.904330 -5.640370 1.356421 A
2602 A 15.863030 -4.750023 1.739353 A
2603 A 16.037220 -3.912545 1.351319 A
2604 A -5.692355 -20.356580 -4.589991 A
2605 A -5.732730 -19.775730 -5.461028 A
2606 A -5.328551 -19.554080 -6.340398 A
2607 A -4.513934 -19.245000 -6.065948 A
2608 A -3.695199 -19.345210 -6.528516 A
2609 A -4.310759 -20.065310 -6.709049 A
2610 B -4.330405 -20.843750 -7.223334 B
2611 B -4.428671 -20.716260 -8.249105 B
2612 B -5.184028 -20.463890 -8.858424 B
2613 B -5.202805 -20.515820 -9.837516 B
2614 B -5.104293 -21.333520 -10.427970 B
2615 B -5.184390 -21.741800 -9.490216 B
2616 B -4.531065 -22.448230 -9.074282 B
2617 A -3.488541 -22.068670 -9.221945 A
2618 A -3.624934 -23.035650 -8.995535 A
2619 A -3.007217 -22.598050 -8.462982 A
2620 A -2.629592 -22.258900 -7.597800 A
2621 A -1.727997 -22.412120 -7.401469 A
2622 A -1.715286 -22.868520 -6.528906 A
2623 A 21.061370 6.903471 13.167190 A
2624 A 21.386280 6.882590 12.267380 A
2625 A 22.299300 6.662613 12.465280 A
2626 A 23.219690 6.588440 12.633610 A
2627 A 23.934170 5.938503 12.599770 A
2628 A 23.440810 5.154215 12.398980 A
2629 B 22.946970 4.439866 12.025260 B
2630 B 22.717140 3.712653 11.486380 B
2631 B 22.941590 3.015782 10.897000 B
2632 B 23.033980 2.740110 10.002620 B
2633 B 22.966960 3.502231 9.351241 B
2634 B 22.927540 4.327962 8.800654 B
2635 B 22.389040 4.845564 8.106876 B
2636 A 21.530420 4.902792 7.717674 A
2637 A 20.873800 4.282339 7.323993 A
2638 A 21.031260 3.356452 7.551838 A
2639 A 21.899830 2.998581 7.772950 A
2640 A 22.778020 3.060140 8.269688 A
2641 A 23.622490 2.647893 8.426984 A
2642 A 10.409400 6.552816 14.875280 A
2643 A 10.744950 5.751095 15.299230 A
2644 A 11.369020 5.080071 15.497600 A
2645 A 12.126040 4.537414 15.633730 A
2646 A 13.023480 4.295239 15.523600 A
2647 A 13.245430 4.841978 14.770710 A
2648 B 13.019630 5.182224 13.890330 B
2649 B 12.175370 5.175354 13.475950 B
2650 B 11.895240 4.275843 13.549220 B
2651 B 11.650000 3.361882 13.536390 B
2652 B 11.458060 2.531692 13.986030 B
2653 B 12.029510 2.581253 14.779170 B
2654 B 11.845430 2.326811 15.712240 B
2655 A 11.594970 2.569105 16.568090 A
2656 A 11.502620 3.023974 17.445330 A
2657 A 10.751800 3.339404 17.990650 A
2658 A 10.492830 3.679031 18.856740 A
2659 A 10.501660 4.356321 19.511640 A
2660 A 10.324510 5.124532 20.036770 A
2661 A 19.717380 -3.134395 -4.814207 A
2662 A 20.137320 -3.971276 -4.854020 A
2663 A 20.408220 -4.908026 -4.778762 A
2664 A 20.609100 -5.637572 -5.346557 A
2665 A 20.372490 -5.001930 -6.046195 A
2666 A 19.634750 -4.557345 -6.452052 A
2667 B 18.726040 -4.680699 -6.657995 B
2668 B 17.932720 -4.941300 -6.174384 B
2669 B 17.579350 -5.036132 -5.319091 B
2670 B 16.688430 -4.630334 -5.602077 B
2671 B 16.627510 -3.741352 -6.050651 B
2672 B 15.710020 -3.621130 -6.347871 B
2673 B 15.494650 -4.509195 -6.861657 B
2674 A 16.321080 -4.933171 -6.699652 A
2675 A 16.706760 -5.676962 -7.218431 A
2676 A 17.369870 -6.136025 -6.885770 A
2677 A 18.023420 -6.723870 -7.427133 A
2678 A 17.908350 -7.590808 -6.949913 A
2679 A 16.981670 -7.990273 -6.656707 A
2680 A -19.887320 -6.816241 18.927240 A
2681 A -20.481470 -7.380141 18.661520 A
2682 A -20.835310 -7.905398 19.383460 A
2683 A -21.684610 -7.142757 19.432590 A
2684 A -22.384330 -7.785953 19.754810 A
2685 A -22.113660 -8.326234 20.486520 A
2686 B -21.828510 -9.087421 20.064060 B
2687 B -21.477480 -9.872369 19.553290 B
2688 B -21.298580 -10.521710 18.826670 B
2689 B -21.382930 -10.260510 17.873690 B
2690 B -21.646910 -10.174070 16.992520 B
2691 B -22.445210 -10.384330 16.523420 B
2692 B -23.192760 -10.918040 16.230300 B
2693 A -23.738030 -11.300410 15.557900 A
2694 A -24.365980 -10.939930 14.961220 A
2695 A 24.927060 -10.226500 15.181450 A
2696 A 24.105980 -9.795203 14.899580 A
2697 A 23.473580 -9.495212 15.500330 A
2698 A 22.537380 -9.909261 15.521690 A
2699 A 10.832640 -6.657759 -5.521504 A
2700 A 10.230920 -7.363441 -5.226860 A
2701 A 9.962955 -8.175388 -4.779624 A
2702 A 9.279844 -8.563409 -4.210831 A
2703 A 8.718142 -8.906186 -3.501076 A
2704 A 8.086513 -8.981752 -2.735183 A
2705 B 7.296216 -9.223786 -2.217349 B
2706 B 6.448946 -9.336404 -1.834011 B
2707 B 6.030020 -9.285069 -0.943415 B
2708 B 6.017632 -8.739841 -0.155202 B
2709 B 6.228563 -7.854891 0.149025 B
2710 B 5.497401 -7.253531 0.172438 B
2711 B 4.876695 -6.642109 -0.162107 B
2712 A 4.580778 -5.790625 -0.522312 A
2713 A 5.217459 -5.114905 -0.680644 A
2714 A 5.939748 -4.535450 -0.912981 A
2715 A 5.277160 -4.405241 -1.618652 A
2716 A 4.323689 -4.329454 -1.384056 A
2717 A 3.389381 -4.359697 -1.198348 A
2718 A 16.199690 -0.643043 7.258131 A
2719 A 15.760980 -0.516190 8.083881 A
2720 A 15.761510 -0.913627 8.907936 A
2721 A 16.183760 -0.236197 9.420356 A
2722 A 16.733330 -0.443451 8.659349 A
2723 A 17.284340 -0.663038 9.441033 A
2724 B 17.898400 -0.831268 10.200330 B
2725 B 18.223860 -1.613309 10.565730 B
2726 B 18.322640 -2.445947 10.141420 B
2727 B 17.882890 -3.098361 9.550551 B
2728 B 17.290070 -3.492991 8.893681 B
2729 B 16.682170 -3.645789 8.183626 B
2730 B 16.481630 -3.781819 7.272795 B
2731 A 16.651340 -3.402590 6.414823 A
2732 A 16.908660 -2.482456 6.486487 A
2733 A 17.475490 -1.712627 6.625342 A
2734 A 18.007510 -0.942222 6.992817 A
2735 A 18.620980 -0.184963 6.949900 A
2736 A 19.179160 0.520265 6.639645 A
2737 A -13.272070 -16.705650 11.505020 A
2738 A -13.802120 -16.538750 12.303480 A
2739 A -14.524060 -16.303650 12.890770 A
2740 A -15.218860 -16.493920 13.460620 A
2741 A -16.150700 -16.512480 13.499280 A
2742 A -16.820480 -16.790990 12.807920 A
2743 B -17.293110 -17.497740 12.233090 B
2744 B -16.849970 -18.401080 12.279180 B
2745 B -16.253720 -17.811360 11.894270 B
2746 B -15.617320 -17.141690 11.668900 B
2747 B -14.764230 -17.375360 11.095160 B
2748 B -14.020920 -17.637820 10.500740 B
2749 B -13.470650 -18.410460 10.524610 B
2750 A -13.103520 -19.183430 10.981290 A
2751 A -12.580760 -19.909800 10.602440 A
2752 A -11.937090 -20.540390 10.272750 A
2753 A -11.099930 -21.034000 9.951561 A
2754 A -11.523510 -20.684760 9.186937 A
2755 A -12.418230 -20.585050 8.740792 A
2756 A 6.718281 17.024380 19.806010 A
2757 A 6.254544 17.777580 20.083860 A
2758 A 5.926220 18.454090 20.639120 A
2759 A 6.448285 19.294540 20.692990 A
2760 A 6.704687 19.982000 21.276640 A
2761 A 7.490467 19.752240 21.839670 A
2762 B 8.371462 19.847720 21.420470 B
2763 B 9.203773 19.359280 21.305550 B
2764 B 10.118670 19.390970 21.776760 B
2765 B 10.941450 19.334750 22.309590 B
2766 B 11.401480 20.110970 22.637840 B
2767 B 11.594410 20.931590 23.061160 B
2768 B 11.728790 21.304870 23.954520 B
2769 A 11.145970 21.384250 24.747810 A
2770 A 10.261740 21.116970 24.939350 A
2771 A 9.656834 20.555280 -24.494080 A
2772 A 8.944668 19.901900 -24.491810 A
2773 A 8.141710 19.435430 -24.249830 A
2774 A 7.306910 19.287380 -23.860050 A
2775 A -8.593964 11.905820 3.166179 A
2776 A -8.012937 11.301720 3.601377 A
2777 A -7.315516 10.675290 3.726180 A
2778 A -7.460363 9.857438 4.116569 A
2779 A -7.531523 9.202758 4.795527 A
2780 A -7.740139 8.735326 5.551907 A
2781 B -7.778472 8.039090 4.924753 B
2782 B -7.519337 7.365571 4.296970 B
2783 B -7.387663 6.407935 4.250122 B
2784 B -7.812477 5.540182 4.531916 B
2785 B -7.884373 4.841747 5.174965 B
2786 B -7.759017 5.104781 6.070127 B
2787 B -7.017441 5.624651 6.291597 B
2788 A -6.158433 5.818429 6.019489 A
2789 A -6.437191 6.787985 6.165107 A
2790 A -7.017350 7.466344 5.863249 A
2791 A -7.325468 7.358856 6.784988 A
2792 A -7.986073 6.800786 7.315578 A
2793 A -8.554424 6.263801 7.916272 A
2794 A 16.317410 22.784180 5.889084 A
2795 A 16.610470 22.124060 5.279727 A
2796 A 17.271470 21.762370 4.722880 A
2797 A 18.065330 21.937820 4.198687 A
2798 A 18.429470 22.795070 4.012901 A
2799 A 18.965770 23.366680 3.458719 A
2800 B 19.719370 23.723860 2.929165 B
2801 B 19.951140 23.118740 2.240972 B
2802 B 19.636810 22.336400 1.726972 B
2803 B 18.941590 21.761880 1.411214 B
2804 B 18.070320 21.884460 1.045372 B
2805 B 17.668290 22.370790 0.315520 B
2806 B 17.828930 22.855300 -0.497767 B
2807 A 17.741580 23.527110 -1.184338 A
2808 A 16.973870 24.133730 -1.010049 A
2809 A 16.377330 24.483560 -0.359466 A
2810 A 16.398740 -24.918320 0.427148 A
2811 A 16.968520 -24.441620 1.047114 A
2812 A 17.003810 -23.985280 1.845324 A
2813 A -23.220990 9.665766 -18.102170 A
2814 A -22.662080 9.882002 -18.829900 A
2815 A -21.755800 9.759123 -19.050920 A
2816 A -20.839800 9.808763 -18.770170 A
2817 A -19.961500 9.467484 -18.846040 A
2818 A -19.139670 9.267630 -18.406080 A
2819 B -18.802010 8.746983 -17.625050 B
2820 B -19.101030 8.117560 -16.956120 B
2821 B -19.299760 7.546611 -16.209220 B
2822 B -20.004340 7.076659 -15.708500 B
2823 B -20.447610 6.268129 -15.456050 B
2824 B -21.105320 5.606556 -15.651610 B
2825 B -21.268940 5.081464 -16.447750 B
2826 A -20.909750 4.514086 -17.111860 A
2827 A -20.248340 4.130366 -17.677260 A
2828 A -19.907530 4.094212 -18.560870 A
2829 A -19.581420 4.144075 -19.456410 A
2830 A -19.821800 4.542259 -20.300270 A
2831 A -20.514720 5.101455 -20.695160 A
2832 A -19.543800 8.765261 8.241508 A
2833 A -20.297860 8.968865 7.707114 A
2834 A -21.184310 8.903978 7.346340 A
2835 A -22.073060 9.225389 7.309866 A
2836 A -22.967760 9.377862 7.093213 A
2837 A -22.733810 10.300510 7.099058 A
2838 B -21.989050 10.860270 7.170295 B
2839 B -21.774120 11.719100 6.780828 B
2840 B -22.365430 12.428560 6.333189 B
2841 B -23.276020 12.668630 6.127302 B
2842 B -24.021310 13.209930 5.664695 B
2843 B -24.642910 13.657170 6.194073 B
2844 B -24.652270 14.578200 6.568864 B
2845 A -24.844350 15.317410 7.166952 A
2846 A -24.792390 16.099850 7.766294 A
2847 A 24.201410 16.351520 7.910162 A
2848 A 23.452910 16.560720 7.319662 A
2849 A 23.013270 16.697390 6.466539 A
2850 A 22.527310 16.895300 5.664317 A
2851 A 8.045469 -1.566474 -7.364349 A
2852 A 7.056449 -1.675280 -7.058236 A
2853 A 6.051195 -1.682866 -6.923586 A
2854 A 5.197065 -1.922286 -7.303041 A
2855 A 4.287914 -2.168810 -7.556119 A
2856 A 3.305947 -2.561342 -7.477262 A
2857 B 3.258641 -2.720574 -6.559847 B
2858 B 3.368514 -2.003861 -5.831464 B
2859 B 3.814453 -1.610130 -6.643221 B
2860 B 3.828678 -0.815499 -7.124279 B
2861 B 4.522284 -0.623242 -6.481340 B
2862 B 5.090458 -0.991492 -5.781111 B
2863 B 5.926986 -1.472852 -5.285162 B
2864 A 5.734682 -1.927129 -4.387157 A
2865 A 6.055648 -2.020162 -3.505331 A
2866 A 5.827517 -1.772281 -2.632437 A
2867 A 6.567551 -1.259485 -2.223474 A
2868 A 7.410260 -0.924227 -1.914934 A
2869 A 7.938987 -0.192101 -1.574288 A
2870 A -9.604542 -4.769739 19.501160 A
2871 A -8.844888 -5.119129 19.902630 A
2872 A -8.369388 -5.678609 20.479730 A
2873 A -7.945388 -6.109379 21.242980 A
2874 A -7.847149 -6.462037 22.135520 A
2875 A -8.453276 -7.048963 22.334840 A
2876 B -7.987404 -7.407544 23.146890 B
2877 B -7.189848 -7.978395 23.383800 B
2878 B -7.117056 -8.595643 22.682500 B
2879 B -7.106461 -9.413551 23.348090 B
2880 B -6.238166 -9.058744 23.865450 B
2881 B -5.350453 -8.461407 24.123550 B
2882 B -5.097524 -7.457398 23.932500 B
2883 A -5.198890 -6.589404 24.306510 A
2884 A -4.364261 -6.922474 24.698720 A
2885 A -4.062371 -7.335036 -24.403750 A
2886 A -3.093421 -7.394955 -24.291290 A
2887 A -3.159262 -7.828491 24.796060 A
2888 A -2.184356 -7.615396 24.720950 A
2889 A 1.003735 23.941380 -22.267950 A
2890 A 0.112106 24.225750 -22.022640 A
2891 A -0.200818 24.604720 -21.177080 A
2892 A 0.214772 -24.819220 -20.429150 A
2893 A 0.418072 -24.058110 -19.871630 A
2894 A 0.997068 -23.561630 -19.293230 A
2895 B 1.720980 -23.371420 -18.712230 B
2896 B 2.298935 -24.124690 -18.784700 B
2897 B 3.058470 -24.697950 -18.951520 B
2898 B 3.381459 24.318040 -18.751880 B
2899 B 2.893697 23.670150 -18.276710 B
2900 B 2.141590 23.725580 -17.718150 B
2901 B 1.872293 24.516990 -17.242410 B
2902 A 2.030942 -24.956700 -16.431390 A
2903 A 2.786071 24.911850 -15.831020 A
2904 A 3.449115 24.873970 -15.130270 A
2905 A 2.705213 24.684950 -14.543230 A
2906 A 1.767023 24.714440 -14.352920 A
2907 A 1.113132 24.275260 -13.802650 A
2908 A -9.890529 -24.308630 -14.597390 A
2909 A -10.123880 24.883550 -15.280380 A
2910 A -10.906420 24.445960 -15.574890 A
2911 A -11.555730 24.080860 -16.188530 A
2912 A -11.765410 23.316340 -16.764770 A
2913 A -12.195370 22.870700 -17.557580 A
2914 B -12.294090 22.429660 -18.374690 B
2915 B -11.612180 22.993770 -18.861650 B
2916 B -10.701570 23.035740 -19.005200 B
2917 B -9.928886 22.523320 -18.908500 B
2918 B -10.159120 21.817560 -18.300850 B
2919 B -10.859100 21.787760 -17.676210 B
2920 B -11.552970 21.166500 -17.530320 B
2921 A -12.108190 20.423870 -17.547410 A
2922 A -12.882570 19.901960 -17.452890 A
2923 A -13.783940 19.698200 -17.216370 A
2924 A -13.952750 19.410800 -16.312760 A
2925 A -12.971390 19.302260 -16.387260 A
2926 A -12.111060 19.129680 -16.734310 A
2927 A -18.779140 11.059420 11.395330 A
2928 A -19.513380 11.064110 12.018090 A
2929 A -20.210140 11.740500 11.960560 A
2930 A -21.172120 11.666390 12.009760 A
2931 A -21.376630 11.525630 12.934770 A
2932 A -20.945470 11.340150 13.732830 A
2933 B -20.256440 10.919300 14.224320 B
2934 B -19.993990 10.003510 14.455570 B
2935 B -20.128040 9.182749 15.038550 B
2936 B -21.107450 9.132879 15.064260 B
2937 B -21.936960 9.289557 14.744940 B
2938 B -22.086240 8.350995 14.724430 B
2939 B -22.367660 7.736671 15.255120 B
2940 A -21.724570 7.311265 14.719610 A
2941 A -22.021930 6.519246 15.049870 A
2942 A -21.171130 5.961647 14.669040 A
2943 A -20.465590 6.136998 14.137990 A
2944 A -19.682220 6.744088 14.336150 A
2945 A -19.448760 6.356687 15.111010 A
2946 A 12.604170 3.669223 21.292450 A
2947 A 13.211770 3.254590 20.652340 A
2948 A 13.771100 3.075493 19.894580 A
2949 A 14.227680 2.441073 19.370120 A
2950 A 14.638790 1.570445 19.310580 A
2951 A 14.996490 0.837014 18.782250 A
2952 B 15.500290 0.945309 17.983500 B
2953 B 15.140520 0.043897 17.994090 B
2954 B 14.549000 -0.632411 18.339280 B
2955 B 14.851900 -1.367409 17.851930 B
2956 B 14.979050 -2.278919 18.006880 B
2957 B 15.479600 -2.828381 18.593810 B
2958 B 15.626490 -3.557024 19.284940 B
2959 A 16.247980 -4.271311 19.129560 A
2960 A 17.121680 -4.584088 19.329150 A
2961 A 17.535160 -4.883572 20.192270 A
2962 A 17.743780 -5.180346 21.063060 A
2963 A 17.914880 -4.939600 21.931730 A
2964 A 18.465730 -4.777667 22.740160 A
2965 A 21.990840 19.297820 1.102605 A
2966 A 22.478810 20.006810 1.498464 A
2967 A 22.674390 20.928270 1.729308 A
2968 A 22.175650 21.524600 1.175495 A
2969 A 21.451330 22.105140 0.974996 A
2970 A 21.393830 23.000770 0.681748 A
2971 B 21.722980 23.900760 0.672181 B
2972 B 22.498550 24.184530 0.191588 B
2973 B 22.638660 23.951650 -0.737790 B
2974 B 22.088960 23.695630 -1.468487 B
2975 B 21.627250 24.182060 -2.139692 B
2976 B 22.038120 24.486280 -2.927759 B
2977 B 22.798700 24.506210 -3.479043 B
2978 A 23.476760 24.616800 -4.140910 A
2979 A 24.349720 24.467540 -4.482453 A
2980 A -24.792220 23.921900 -4.500327 A
2981 A -24.238770 23.112830 -4.534483 A
2982 A -23.817740 22.223030 -4.453411 A
2983 A -23.391080 21.469440 -3.985603 A
2984 A -9.675405 11.427020 -9.755518 A
2985 A -10.156150 12.062280 -9.198377 A
2986 A -11.127880 11.816960 -9.303984 A
2987 A -11.673950 11.421510 -8.645369 A
2988 A -10.966430 10.820830 -8.361646 A
2989 A -10.210400 10.297900 -8.054111 A
2990 B -9.561963 9.769934 -7.651466 B
2991 B -9.909386 9.069156 -7.047352 B
2992 B -10.723090 9.279508 -6.536065 B
2993 B -11.501630 8.882693 -7.011352 B
2994 B -11.623330 9.077407 -7.948714 B
2995 B -11.366200 9.474577 -8.784513 B
2996 B -10.468570 9.152827 -8.922666 B
2997 A -10.083010 8.436378 -9.415699 A
2998 A -9.929111 7.658130 -9.997117 A
2999 A -10.249170 6.742921 -10.019160 A
3000 A -10.619340 5.906021 -10.222540 A
3001 A -11.211260 5.161006 -10.173440 A
3002 A -11.834940 4.965202 -9.416217 A
3003 A 15.981280 -12.627900 0.721507 A
3004 A 16.327180 -12.586600 -0.164013 A
3005 A 16.793090 -12.323910 -0.944257 A
3006 A 17.542880 -12.875250 -1.194847 A
3007 A 18.479510 -12.998700 -1.410823 A
3008 A 19.292830 -12.915820 -0.862823 A
3009 B 18.901880 -12.141930 -0.365170 B
3010 B 19.244240 -11.519480 0.230497 B
3011 B 19.968600 -12.015370 0.031239 B
3012 B 20.255700 -12.854310 0.324011 B
3013 B 20.657940 -13.590780 0.788134 B
3014 B 21.194580 -14.367720 0.498068 B
3015 B 21.829350 -15.017070 0.757524 B
3016 A 22.492770 -15.191120 1.401563 A
3017 A 23.168530 -14.720710 1.988138 A
3018 A 24.126230 -14.347010 2.045504 A
3019 A -24.839300 -14.284360 1.911540 A
3020 A -24.137010 -14.710190 1.447705 A
3021 A -23.511750 -15.442370 1.361152 A
3022 A -10.372770 4.205390 -7.727995 A
3023 A -11.115680 3.876210 -8.242704 A
3024 A -11.990130 3.505657 -8.556597 A
3025 A -11.990000 2.574892 -8.475828 A
3026 A -11.343300 1.891441 -8.674036 A
3027 A -10.753730 1.130361 -8.693664 A
3028 B -10.234730 0.458514 -8.215670 B
3029 B -10.227190 -0.054523 -7.385990 B
3030 B -10.783980 0.511288 -6.800451 B
3031 B -10.696970 1.448601 -6.694044 B
3032 B -10.216600 2.089202 -6.152993 B
3033 B -9.641631 2.760137 -5.773281 B
3034 B -9.210514 3.518332 -5.309033 B
3035 A -8.909870 3.751616 -4.433470 A
3036 A -9.869879 3.714688 -4.205134 A
3037 A -10.827830 3.786374 -4.231435 A
3038 A -11.573400 3.300925 -3.917051 A
3039 A -12.487720 3.484806 -3.816671 A
3040 A -13.146430 3.953432 -3.218707 A
3041 A -17.879080 20.629270 -3.340851 A
3042 A -17.304990 21.350930 -3.102387 A
3043 A -16.654400 21.978700 -2.767898 A
3044 A -15.773940 22.247960 -2.637314 A
3045 A -15.114770 22.835290 -2.999355 A
3046 A -15.312120 23.021410 -3.911938 A
3047 B -15.460180 22.801700 -4.843000 B
3048 B -16.268820 22.567930 -5.298786 B
3049 B -17.050490 21.990950 -5.429250 B
3050 B -17.388940 21.533610 -6.246783 B
3051 B -18.073460 22.048790 -6.662632 B
3052 B -19.001020 22.206250 -6.658399 B
3053 B -19.828030 22.536870 -6.878440 B
3054 A -20.405330 23.289330 -6.554318 A
3055 A -20.489730 24.274650 -6.410823 A
3056 A -19.818770 24.805080 -6.762125 A
3057 A -19.444420 -24.392090 -7.250184 A
3058 A -19.597180 -23.518030 -7.680651 A
3059 A -19.668580 -22.599650 -8.052121 A
3060 A 17.496160 -9.551918 4.104206 A
3061 A 18.275210 -10.060790 4.387731 A
3062 A 19.066320 -10.586770 4.219484 A
3063 A 19.494770 -11.314260 3.797172 A
3064 A 19.045480 -11.718840 3.063032 A
3065 A 18.616150 -11.490500 2.243973 A
3066 B 18.370450 -10.681360 1.749187 B
3067 B 18.230810 -9.775236 1.427838 B
3068 B 18.280370 -8.841199 1.242588 B
3069 B 18.129550 -8.077668 0.707009 B
3070 B 17.773630 -8.084266 -0.181655 B
3071 B 17.276310 -8.840930 -0.412228 B
3072 B 16.445790 -9.167567 -0.750980 B
3073 A 15.937010 -8.744744 -1.472529 A
3074 A 15.390320 -8.053185 -1.852201 A
3075 A 14.548110 -7.673950 -2.122517 A
3076 A 13.751770 -8.167096 -2.212522 A
3077 A 12.923260 -8.624368 -2.313581 A
3078 A 12.517190 -9.493492 -2.166451 A
3079 A -0.042123 -5.194772 -7.484174 A
3080 A 0.628821 -5.810791 -7.826991 A
3081 A 1.366737 -6.170920 -8.338818 A
3082 A 2.141993 -6.340675 -8.898774 A
3083 A 2.907737 -6.343478 -8.339205 A
3084 A 3.075747 -6.981099 -7.665151 A
3085 B 2.811113 -7.310680 -6.809943 B
3086 B 2.490258 -7.075963 -5.896843 B
3087 B 1.648387 -6.670794 -5.596088 B
3088 B 1.536557 -5.698192 -5.469191 B
3089 B 1.930303 -4.822313 -5.407606 B
3090 B 2.078067 -3.912037 -5.534864 B
3091 B 1.215936 -3.383469 -5.531910 B
3092 A 0.391021 -3.818115 -5.276879 A
3093 A -0.109450 -4.214738 -6.014257 A
3094 A -0.900118 -4.626348 -6.391960 A
3095 A -1.277630 -3.945057 -6.968209 A
3096 A -1.776151 -3.148848 -7.140611 A
3097 A -2.132876 -2.223783 -7.110519 A
3098 A -3.414790 -9.077166 16.757760 A
3099 A -2.426801 -9.169141 16.578720 A
3100 A -2.090163 -10.045920 16.380220 A
3101 A -2.295641 -11.069320 16.430120 A
3102 A -3.305506 -11.109490 16.539860 A
3103 A -3.565474 -11.145740 15.576310 A
3104 B -4.520892 -11.328190 15.394250 B
3105 B -5.165551 -11.795320 15.918750 B
3106 B -5.493185 -12.375270 16.571070 B
3107 B -5.640751 -12.657810 17.483840 B
3108 B -4.866984 -12.676650 18.056400 B
3109 B -5.190038 -11.769470 18.303750 B
3110 B -5.436797 -10.881490 18.470950 B
3111 A -6.049671 -11.189870 17.744950 A
3112 A -6.646876 -11.075070 16.980760 A
3113 A -6.882443 -10.698390 16.135520 A
3114 A -7.727604 -10.812350 15.741780 A
3115 A -8.516857 -10.706910 16.325150 A
3116 A -8.869018 -10.464770 17.194360 A
3117 A 22.284530 18.915990 5.073646 A
3118 A 23.189110 18.695460 5.277120 A
3119 A 23.617360 18.214140 5.997233 A
3120 A 23.318320 18.015570 6.922450 A
3121 A 23.318000 18.009070 7.889802 A
3122 A 23.518450 18.777380 8.393485 A
3123 B 24.262180 19.267610 8.720013 B
3124 B 24.899270 18.745750 9.181108 B
3125 B -24.546070 18.103120 8.621087 B
3126 B -23.942920 17.394990 8.334137 B
3127 B -23.348330 16.819040 7.737805 B
3128 B -22.644010 16.325890 7.440987 B
3129 B -22.387100 17.178290 7.831772 B
3130 A -22.537640 17.877600 8.497541 A
3131 A -23.037740 18.585630 8.830000 A
3132 A -23.783280 19.122130 9.041078 A
3133 A -24.094800 19.835210 9.647331 A
3134 A -24.527540 20.492440 10.218750 A
3135 A 24.847760 21.094090 10.749610 A
3136 A -3.735258 -19.862020 1.002429 A
3137 A -2.999321 -19.229690 0.966150 A
3138 A -2.332010 -18.542730 0.902691 A
3139 A -1.727195 -18.227370 0.239578 A
3140 A -1.131163 -18.221940 -0.502731 A
3141 A -0.971979 -19.148390 -0.838117 A
3142 B -1.126609 -20.105890 -0.904017 B
3143 B -1.081459 -20.931490 -1.408044 B
3144 B -1.304313 -21.626350 -2.003415 B
3145 B -1.793802 -21.093770 -2.691267 B
3146 B -2.557062 -20.634550 -2.212478 B
3147 B -3.207596 -20.785370 -1.569957 B
3148 B -3.241985 -21.322950 -0.807504 B
3149 A -3.047005 -22.043310 -0.215891 A
3150 A -2.120416 -22.193920 -0.175058 A
3151 A -1.179185 -22.073930 -0.250969 A
3152 A -0.848009 -22.827460 -0.764047 A
3153 A -1.529164 -23.436890 -1.051904 A
3154 A -2.249380 -24.085140 -1.154983 A
3155 A -19.938140 -9.659511 -16.354250 A
3156 A -18.970410 -9.528088 -16.111620 A
3157 A -18.581860 -9.026334 -15.395750 A
3158 A -18.228070 -8.295403 -14.921350 A
3159 A -17.337590 -8.322473 -14.440410 A
3160 A -16.452570 -8.513028 -14.116380 A
3161 B -16.267220 -7.832181 -13.512880 B
3162 B -16.050910 -8.686632 -13.049780 B
3163 B -15.997560 -9.280007 -12.280820 B
3164 B -16.486450 -10.011580 -12.452240 B
3165 B -17.422610 -10.356840 -12.586370 B
3166 B -18.134740 -10.661290 -13.149020 B
3167 B -18.860780 -11.347680 -13.153530 B
3168 A -18.110420 -11.737300 -13.603410 A
3169 A -17.569360 -12.397330 -14.112010 A
3170 A -16.995910 -11.941880 -14.723510 A
3171 A -16.867380 -11.062300 -15.009060 A
3172 A -15.949690 -10.804480 -14.871160 A
3173 A -15.304270 -10.690860 -14.167770 A
3174 A -16.585940 -17.954980 -10.039810 A
3175 A -16.007640 -17.347600 -9.554414 A
3176 A -15.924330 -16.377940 -9.460392 A
3177 A -15.704500 -15.524910 -9.817711 A
3178 A -16.290070 -14.895620 -10.261850 A
3179 A -17.066780 -15.263760 -10.694440 A
3180 B -17.591190 -15.788210 -10.027300 B
3181 B -18.249790 -15.990240 -9.344697 B
3182 B -18.955790 -15.492350 -8.876185 B
3183 B -19.526970 -14.779430 -8.523278 B
3184 B -19.712020 -13.844410 -8.604722 B
3185 B -19.760960 -13.340910 -9.433937 B
3186 B -19.388090 -12.857710 -10.209260 B
3187 A -18.405290 -12.907260 -9.977765 A
3188 A -17.618720 -12.492460 -9.564676 A
3189 A -17.337290 -11.885270 -8.910984 A
3190 A -16.869040 -11.372460 -8.249300 A
3191 A -16.867380 -11.153210 -7.284961 A
3192 A -16.594110 -10.951060 -6.395411 A
3193 A 17.200280 4.929887 -24.885530 A
3194 A 17.274220 5.037259 24.057880 A
3195 A 16.965960 4.411475 23.421780 A
3196 A 16.381040 4.002032 22.768970 A
3197 A 15.844940 4.005110 21.955700 A
3198 A 15.816940 3.996061 20.984870 A
3199 B 16.248840 4.873831 20.948040 B
3200 B 16.911170 5.339936 20.546730 B
3201 B 16.386600 5.336503 19.634920 B
3202 B 15.410200 5.627179 19.691610 B
3203 B 14.794790 6.255610 19.536140 B
3204 B 13.755740 6.218360 19.483320 B
3205 B 13.317330 5.436489 19.863550 B
3206 A 13.341660 5.301354 20.842790 A
3207 A 13.001840 5.221462 21.690870 A
3208 A 12.235500 5.528384 22.202380 A
3209 A 11.326910 5.400293 22.457630 A
3210 A 10.596880 5.640967 23.038780 A
3211 A 10.350440 4.577507 23.102420 A
3212 A -11.441730 -19.400740 11.360580 A
3213 A -10.992190 -19.850630 10.648570 A
3214 A -10.194690 -19.807470 10.095160 A
3215 A -9.338416 -19.863070 9.675741 A
3216 A -8.461575 -19.628090 10.011540 A
3217 A -8.624308 -19.163190 10.863180 A
3218 B -8.676332 -19.100550 11.827310 B
3219 B -8.898405 -18.657760 12.611890 B
3220 B -8.941800 -17.786460 12.994980 B
3221 B -8.683180 -16.849600 13.147130 B
3222 B -7.983004 -16.185340 13.250300 B
3223 B -7.037505 -15.980500 13.173450 B
3224 B -6.591293 -16.504150 12.473510 B
3225 A -6.947267 -16.903940 11.694370 A
3226 A -7.687694 -17.512750 11.529300 A
3227 A -8.649652 -17.586630 11.391150 A
3228 A -9.390593 -17.571860 10.798700 A
3229 A -9.510723 -17.247400 9.921863 A
3230 A -10.242660 -16.934690 9.422838 A
3231 A -23.571040 1.304104 24.562020 A
3232 A -22.753060 1.626720 24.210760 A
3233 A -22.084350 1.443387 23.540770 A
3234 A -21.929480 2.408476 23.338930 A
3235 A -21.507980 3.246689 23.080050 A
3236 A -22.057230 3.943195 22.690560 A
3237 B -22.946100 4.232459 22.544690 B
3238 B -23.789190 4.340689 22.954350 B
3239 B -24.697800 4.138566 22.830680 B
3240 B 24.361820 4.454126 22.938180 B
3241 B 24.141750 5.010605 23.697920 B
3242 B 24.683400 5.674779 24.145760 B
3243 B -24.460260 6.257790 24.425670 B
3244 A -23.760280 6.784694 24.839190 A
3245 A -23.119830 7.444270 -24.874010 A
3246 A -22.497540 7.985623 -24.434370 A
3247 A -22.307570 8.578007 -23.697260 A
3248 A -21.901270 9.323280 -23.251620 A
3249 A -21.042030 9.744665 -23.047310 A
3250 A 9.426794 -6.458538 14.560860 A
3251 A 9.207423 -5.861485 13.853110 A
3252 A 8.630325 -5.592516 13.186020 A
3253 A 7.726736 -5.282646 12.821660 A
3254 A 7.470409 -4.926424 11.965100 A
3255 A 6.809599 -4.518427 11.311480 A
3256 B 6.447832 -4.319934 10.415320 B
3257 B 5.625639 -3.994529 10.103510 B
3258 B 6.127138 -3.787873 9.289328 B
3259 B 7.055698 -3.804073 9.389165 B
3260 B 8.027740 -3.875727 9.148148 B
3261 B 8.850664 -4.183117 8.699518 B
3262 B 9.121172 -4.971459 9.136843 B
3263 A 10.035340 -4.691743 9.170309 A
3264 A 10.337790 -5.038348 10.157290 A
3265 A 11.160200 -4.706301 10.574820 A
3266 A 11.953300 -4.031387 10.544580 A
3267 A 11.581280 -3.443236 11.268880 A
3268 A 12.479480 -3.022995 11.144150 A
3269 A 16.240890 11.103170 -7.921063 A
3270 A 16.173520 11.359900 -6.960186 A
3271 A 16.046040 11.939140 -6.153885 A
3272 A 15.235970 12.361650 -5.780131 A
3273 A 14.302460 12.496770 -5.997384 A
3274 A 13.447180 12.609800 -5.536327 A
3275 B 12.829560 12.260170 -4.864058 B
3276 B 13.067960 12.255500 -3.918967 B
3277 B 13.554900 12.624020 -3.156333 B
3278 B 13.911620 13.476660 -3.006802 B
3279 B 14.052640 14.407710 -3.279876 B
3280 B 13.414560 14.416600 -3.976937 B
3281 B 12.530460 14.494600 -4.340110 B
3282 A 11.683350 14.838060 -4.532993 A
3283 A 10.928400 15.260870 -4.216306 A
3284 A 10.444850 15.565770 -3.475025 A
3285 A 9.971128 15.583930 -2.620100 A
3286 A 9.531023 15.665580 -1.761675 A
3287 A 10.212500 15.693450 -1.078193 A
3288 A 13.460060 9.672898 16.217230 A
3289 A 12.552510 9.608099 16.526080 A
3290 A 11.698780 9.405320 16.908120 A
3291 A 11.844320 8.582648 17.463910 A
3292 A 12.061140 7.687540 17.113610 A
3293 A 12.371650 6.809273 17.352010 A
3294 B 12.498180 5.884318 17.219530 B
3295 B 12.017110 5.074077 16.986470 B
3296 B 11.103430 4.850140 16.852210 B
3297 B 10.325540 4.348640 16.554110 B
3298 B 9.936515 4.038666 15.733760 B
3299 B 9.753152 4.359627 14.831700 B
3300 B 9.354200 5.035310 14.293560 B
3301 A 9.110110 5.930149 14.290740 A
3302 A 8.706894 6.648334 14.783020 A
3303 A 8.525630 7.346050 15.429130 A
3304 A 8.700717 8.069495 15.987600 A
3305 A 9.293810 8.814033 16.090000 A
3306 A 10.100770 9.106178 15.698400 A
3307 A -9.587617 2.787046 15.130730 A
3308 A -9.879778 3.179498 14.275260 A
3309 A -10.598790 3.738124 13.952820 A
3310 A -10.516280 4.643872 14.257890 A
3311 A -10.125660 5.523153 14.273870 A
3312 A -9.391686 6.130916 14.238530 A
3313 B -8.980972 7.049550 14.238520 B
3314 B -8.355821 7.612774 13.691410 B
3315 B -7.785306 8.441841 13.604390 B
3316 B -7.523567 9.376648 13.683140 B
3317 B -7.478344 9.972596 14.441320 B
3318 B -7.717395 9.844161 15.358910 B
3319 B -8.474499 9.361429 15.716010 B
3320 A -9.066994 8.606933 15.484880 A
3321 A -9.943245 8.213801 15.370240 A
3322 A -10.751890 7.798477 15.066120 A
3323 A -10.296180 7.073734 15.503990 A
3324 A -9.507507 6.527747 15.469520 A
3325 A -8.817173 6.894821 16.050720 A
3326 A 2.686854 -11.520150 -16.437500 A
3327 A 2.705085 -10.671040 -16.865260 A
3328 A 3.160615 -10.111900 -17.541850 A
3329 A 3.925067 -9.785422 -17.978920 A
3330 A 3.595247 -8.898247 -17.948220 A
3331 A 3.105740 -8.233406 -17.439370 A
3332 B 2.149295 -8.314131 -17.663880 B
3333 B 1.574915 -8.425720 -18.402110 B
3334 B 2.227292 -8.047500 -18.990020 B
3335 B 3.035401 -7.490232 -19.131380 B
3336 B 3.676039 -6.899552 -18.719390 B
3337 B 3.807874 -6.310178 -17.946340 B
3338 B 3.817450 -5.372334 -17.755760 B
3339 A 3.824594 -4.446243 -17.550850 A
3340 A 4.097535 -4.133607 -18.416070 A
3341 A 4.915859 -4.297353 -18.948600 A
3342 A 5.515954 -4.825739 -19.488460 A
3343 A 6.126677 -5.537311 -19.670000 A
3344 A 6.872657 -6.083268 -19.376540 A
3345 A -8.083937 -3.764582 -2.870355 A
3346 A -8.788355 -4.037564 -2.297544 A
3347 A -9.674623 -3.816048 -1.999087 A
3348 A -9.705334 -2.984883 -1.489430 A
3349 A -8.991772 -2.363111 -1.259337 A
3350 A -8.136344 -2.006612 -1.672472 A
3351 B -7.350416 -1.428016 -1.822072 B
3352 B -6.762593 -0.645540 -1.622427 B
3353 B -6.652148 0.276820 -1.909123 B
3354 B -6.355024 0.953804 -2.488897 B
3355 B -5.748506 1.159443 -3.189976 B
3356 B -4.870725 1.423326 -3.356668 B
3357 B -4.162714 2.028331 -3.235719 B
3358 A -3.493144 2.159512 -2.582330 A
3359 A -3.526052 1.302823 -2.153785 A
3360 A -3.595140 0.711885 -1.377317 A
3361 A -3.833647 0.576658 -0.450881 A
3362 A -4.342141 0.031592 0.193317 A
3363 A -4.993697 -0.281025 0.819203 A
3364 A -23.124820 3.151914 1.834621 A
3365 A -22.961660 3.336601 0.886861 A
3366 A -23.583540 2.921728 0.323072 A
3367 A -23.615520 2.545183 -0.538748 A
3368 A -23.988660 2.181038 -1.397391 A
3369 A -24.646290 1.696064 -1.974270 A
3370 B 24.608170 0.992793 -2.173989 B
3371 B 23.724830 0.639638 -1.881103 B
3372 B 23.571670 0.347765 -0.988406 B
3373 B 23.530730 0.541205 -0.048850 B
3374 B 23.534740 0.378603 0.898489 B
3375 B 23.967130 -0.126262 1.557690 B
3376 B 24.692710 -0.742791 1.706906 B
3377 A -24.843530 -1.660213 1.708689 A
3378 A -24.613930 -2.261613 0.998721 A
3379 A -24.324020 -2.447011 0.098886 A
3380 A -24.312630 -2.142932 -0.819402 A
3381 A -24.251060 -1.503347 -1.546102 A
3382 A -24.670230 -0.748796 -2.040859 A
3383 A 4.782688 20.043480 13.482330 A
3384 A 5.626426 20.365890 13.841490 A
3385 A 5.691362 21.239640 14.207660 A
3386 A 6.460059 21.832630 14.286900 A
3387 A 7.350938 21.704570 14.024240 A
3388 A 7.261344 20.862320 13.597530 A
3389 B 6.901743 20.090630 14.047050 B
3390 B 7.204042 19.290860 14.529510 B
3391 B 7.309877 18.297540 14.638280 B
3392 B 7.398224 17.567210 14.017040 B
3393 B 6.954789 17.368670 13.225560 B
3394 B 6.461665 18.141620 12.949590 B
3395 B 7.264237 18.676330 12.873620 B
3396 A 8.111888 18.355110 12.616560 A
3397 A 8.900075 18.131730 12.097680 A
3398 A 9.158578 17.648090 11.253670 A
3399 A 9.489542 17.145940 10.525970 A
3400 A 9.689307 16.297800 10.145370 A
3401 A 10.164890 15.469320 9.826908 A
3402 A -24.769420 -19.239460 -22.328990 A
3403 A 24.889860 -20.154290 -22.401690 A
3404 A -24.200000 -20.656850 -22.410730 A
3405 A -23.299200 -20.412370 -22.370860 A
3406 A -22.440620 -20.050080 -22.569860 A
3407 A -22.370640 -20.624170 -23.401650 A
3408 B -22.814540 -20.785080 -24.269160 B
3409 B -23.157280 -20.117600 -24.899980 B
3410 B -23.056100 -19.137000 -24.824860 B
3411 B -22.321410 -18.481800 -24.799630 B
3412 B -21.798510 -18.892870 -24.100800 B
3413 B -21.107380 -18.735290 -23.444600 B
3414 B -20.901930 -18.210350 -22.676260 B
3415 A -21.113670 -17.576850 -21.977450 A
3416 A -21.792370 -17.196300 -21.406170 A
3417 A -22.668920 -16.863140 -21.545860 A
3418 A -23.423890 -17.217820 -22.048170 A
3419 A -23.360830 -18.004640 -22.589440 A
3420 A -23.324160 -18.768690 -21.961670 A
3421 A -20.527620 4.009219 20.443810 A
3422 A -19.959490 4.175303 19.669630 A
3423 A -20.184660 4.199789 18.702290 A
3424 A -19.771500 5.084723 18.648900 A
3425 A -19.585350 5.973851 18.883370 A
3426 A -19.610260 6.864532 18.492420 A
3427 B -19.851930 7.304111 17.660360 B
3428 B -19.601790 7.035811 16.804580 B
3429 B -19.693800 6.130634 16.438190 B
3430 B -20.139190 5.301196 16.288490 B
3431 B -19.543480 4.552263 16.024530 B
3432 B -19.742400 3.684839 16.318730 B
3433 B -20.258670 2.913745 16.500720 B
3434 A -20.148960 2.288635 17.170400 A
3435 A -20.635360 2.629289 17.919950 A
3436 A -21.266200 3.279068 17.636460 A
3437 A -21.670310 3.958720 17.141650 A
3438 A -22.011810 4.777798 17.385370 A
3439 A -22.629250 5.143256 18.002240 A
3440 A 6.168828 -15.869490 -14.562960 A
3441 A 5.946568 -15.009100 -14.114210 A
3442 A 5.175537 -14.761010 -13.621060 A
3443 A 4.506556 -14.322130 -14.110100 A
3444 A 3.781133 -13.901550 -14.520960 A
3445 A 2.869929 -13.612970 -14.648230 A
3446 B 2.156385 -14.230110 -14.551620 B
3447 B 1.714937 -14.809930 -13.854120 B
3448 B 1.846647 -15.673080 -13.543130 B
3449 B 2.275259 -16.576730 -13.576310 B
3450 B 2.700323 -16.422360 -14.405960 B
3451 B 2.983913 -16.037270 -15.250750 B
3452 B 2.654281 -16.356990 -16.079770 B
3453 A 2.391495 -17.284890 -16.096880 A
3454 A 2.529260 -18.184720 -16.278840 A
3455 A 3.411765 -18.128290 -16.597580 A
3456 A 3.854129 -17.635520 -17.258350 A
3457 A 3.955052 -17.123730 -18.064210 A
3458 A 3.575138 -16.584940 -18.746190 A
3459 A -2.523786 22.714080 1.182125 A
3460 A -3.258702 22.221970 0.959607 A
3461 A -3.197684 21.787440 0.134108 A
3462 A -3.620811 21.011010 -0.250861 A
3463 A -4.369974 20.960420 0.412342 A
3464 A -5.030972 20.763280 1.019899 A
3465 B -5.639404 21.409560 1.230934 B
3466 B -5.591503 21.673430 2.199938 B
3467 B -5.496342 22.339430 2.895544 B
3468 B -6.021484 23.001920 2.562999 B
3469 B -5.879132 22.769100 1.617592 B
3470 B -5.717681 22.410650 0.686796 B
3471 B -4.938332 22.802900 1.090811 B
3472 A -4.121987 22.816000 1.620304 A
3473 A -3.765484 22.049400 1.994489 A
3474 A -3.960761 21.113950 1.914415 A
3475 A -3.888986 20.190230 1.672438 A
3476 A -4.143382 19.311260 1.630628 A
3477 A -5.034589 18.824870 1.655345 A
3478 A 22.218970 19.226280 -6.316396 A
3479 A 21.365820 18.769380 -6.272753 A
3480 A 20.434970 18.483230 -6.320857 A
3481 A 19.497030 18.635540 -6.237120 A
3482 A 18.542830 18.702280 -6.376669 A
3483 A 17.872400 18.413490 -7.008854 A
3484 B 18.056050 17.593570 -7.447056 B
3485 B 18.778120 17.025920 -7.688789 B
3486 B 19.517700 16.647150 -8.130364 B
3487 B 20.053520 16.134570 -8.787888 B
3488 B 20.127080 15.655290 -9.610799 B
3489 B 20.496680 14.840310 -9.949277 B
3490 B 20.528020 14.155320 -10.656740 B
3491 A 19.897750 14.096540 -11.364090 A
3492 A 19.055370 14.562950 -11.439520 A
3493 A 18.169270 14.925740 -11.515970 A
3494 A 17.239080 14.705390 -11.274090 A
3495 A 16.700520 13.937400 -11.103510 A
3496 A 16.342440 13.151160 -10.720980 A
3497 A 11.174640 -0.329087 -9.273382 A
3498 A 11.794710 -0.771149 -8.754930 A
3499 A 11.615850 -1.639860 -8.599601 A
3500 A 12.104720 -1.536801 -7.822303 A
3501 A 12.788100 -2.170953 -7.713810 A
3502 A 12.831260 -3.148630 -7.832414 A
3503 B 12.985950 -4.110467 -8.151384 B
3504 B 13.560180 -4.035905 -8.938038 B
3505 B 14.102910 -4.036703 -9.696140 B
3506 B 14.888420 -3.754498 -9.350429 B
3507 B 15.663330 -4.273873 -9.578756 B
3508 B 16.011090 -5.076118 -9.992016 B
3509 B 16.500100 -5.506101 -10.692530 B
3510 A 15.999710 -5.455720 -11.526630 A
3511 A 15.857240 -4.931604 -12.319780 A
3512 A 15.115130 -5.207955 -12.837360 A
3513 A 14.620400 -5.777154 -13.483360 A
3514 A 13.965120 -6.493450 -13.403780 A
3515 A 13.152060 -6.887343 -13.781440 A
3516 A 19.905130 -6.306623 -20.468260 A
3517 A 20.138660 -5.451445 -20.814010 A
3518 A 20.300490 -4.591183 -21.196250 A
3519 A 19.980990 -3.772948 -21.596880 A
3520 A 19.646520 -2.874923 -21.748860 A
3521 A 19.963210 -1.963766 -21.557560 A
3522 B 20.618370 -1.291203 -21.391350 B
3523 B 21.264970 -1.176584 -20.646720 B
3524 B 22.170150 -0.864346 -20.493980 B
3525 B 23.108840 -0.948244 -20.577920 B
3526 B 23.207100 -1.538402 -21.380200 B
3527 B 23.214960 -1.663285 -22.342220 B
3528 B 22.788780 -2.120108 -23.045650 B
3529 A 22.185340 -1.942748 -23.710550 A
3530 A 22.139180 -2.365826 -24.589150 A
3531 A 21.789170 -1.520658 24.925410 A
3532 A 21.336520 -0.719873 -24.602810 A
3533 A 20.971620 0.108365 -24.230360 A
3534 A 20.661420 0.581634 -23.406430 A
3535 A -19.732230 -3.664525 -7.839279 A
3536 A -19.406960 -4.413322 -8.335132 A
3537 A -19.475280 -4.839982 -9.295225 A
3538 A -19.542560 -5.055933 -10.248040 A
3539 A -19.856540 -5.128073 -11.136130 A
3540 A -20.716060 -4.865551 -11.463310 A
3541 B -21.425030 -4.266364 -11.740960 B
3542 B -21.626550 -3.445469 -11.331950 B
3543 B -22.240100 -3.003032 -10.736540 B
3544 B -22.846320 -3.063916 -9.957019 B
3545 B -22.284460 -3.298470 -9.191976 B
3546 B -21.509850 -3.873530 -9.423504 B
3547 B -20.867360 -4.211704 -10.024360 B
3548 A -20.738820 -4.718818 -9.203966 A
3549 A -20.583130 -4.339792 -8.335855 A
3550 A -21.014280 -4.346222 -7.468813 A
3551 A -21.668170 -3.546476 -7.532927 A
3552 A -21.859500 -2.678648 -7.893811 A
3553 A -21.953240 -1.974553 -8.517151 A
3554 A -23.937100 7.503614 6.707295 A
3555 A -23.872230 7.148745 7.594525 A
3556 A -24.519280 6.963002 8.210181 A
3557 A -24.880270 6.404975 8.881528 A
3558 A 24.659000 6.424907 9.781883 A
3559 A -24.591500 6.677617 10.427600 A
3560 B -23.679090 6.685040 10.142540 B
3561 B -23.242580 6.498895 9.337386 B
3562 B -22.632250 7.151317 8.972897 B
3563 B -22.020360 7.756878 8.684100 B
3564 B -21.101490 7.802903 8.395805 B
3565 B -20.764670 8.516347 9.053811 B
3566 B -20.978960 7.813555 9.754599 B
3567 A -19.950700 7.811075 9.734040 A
3568 A -20.186680 6.875416 9.785076 A
3569 A -20.413090 7.035034 8.804614 A
3570 A -19.357580 6.771453 8.867911 A
3571 A -18.787310 6.051748 8.375174 A
3572 A -17.839380 6.339501 8.315831 A
3573 A -2.793453 10.622400 -17.587040 A
3574 A -3.676131 11.063960 -17.683730 A
3575 A -4.537544 11.409480 -17.638540 A
3576 A -5.090983 12.204030 -17.706870 A
3577 A -5.903663 12.622480 -18.110400 A
3578 A -6.022312 13.251980 -18.851300 A
3579 B -5.899881 14.196140 -19.026710 B
3580 B -5.526743 14.435850 -18.185970 B
3581 B -5.594971 14.403380 -17.220900 B
3582 B -5.826562 15.319030 -17.338000 B
3583 B -6.335758 16.122940 -17.346820 B
3584 B -6.796812 16.550290 -16.660240 B
3585 B -6.891407 15.971570 -15.817110 B
3586 A -6.827204 15.679540 -14.917040 A
3587 A -5.991551 15.608250 -14.457160 A
3588 A -5.161064 16.080110 -14.364120 A
3589 A -4.732543 16.899680 -14.521440 A
3590 A -4.287893 17.656990 -14.836900 A
3591 A -4.026453 18.077690 -15.572880 A
3592 A 0.189609 11.365950 -20.639040 A
3593 A 0.357270 11.525950 -21.547960 A
3594 A 0.783200 11.317860 -22.414100 A
3595 A 0.383743 10.664130 -23.037570 A
3596 A -0.447884 10.311930 -22.615010 A
3597 A -0.968663 10.472290 -21.845170 A
3598 B -1.451744 10.940800 -21.123140 B
3599 B -2.191368 11.351050 -20.646320 B
3600 B -2.801410 12.110830 -20.645550 B
3601 B -2.453118 13.025070 -20.764620 B
3602 B -2.862662 13.618740 -21.405220 B
3603 B -2.702163 14.596950 -21.363820 B
3604 B -1.785258 14.554920 -21.237800 B
3605 A -1.133782 14.846830 -20.554920 A
3606 A -0.417160 15.422160 -20.186600 A
3607 A 0.352285 14.894950 -20.345570 A
3608 A 0.237804 14.075220 -20.873740 A
3609 A -0.222962 13.566670 -21.627780 A
3610 A -0.014097 13.756170 -22.498630 A
3611 A 19.176070 -0.959598 0.345211 A
3612 A 19.487650 -0.481947 -0.370163 A
3613 A 19.128870 0.395527 -0.622289 A
3614 A 19.644170 1.075562 -1.126543 A
3615 A 19.445440 1.984969 -1.429327 A
3616 A 18.785540 2.068455 -0.667297 A
3617 B 19.224630 1.940246 0.200666 B
3618 B 19.501710 1.983600 1.112344 B
3619 B 20.101720 2.747859 1.269744 B
3620 B 20.812970 2.342931 1.713447 B
3621 B 21.717900 2.090771 1.685001 B
3622 B 21.947610 1.120499 1.951446 B
3623 B 21.610850 0.512540 2.687947 B
3624 A 21.918840 1.120978 3.412871 A
3625 A 21.966950 2.039799 3.186803 A
3626 A 22.324000 2.729873 2.637369 A
3627 A 22.594330 3.042780 1.749811 A
3628 A 23.515450 3.174115 1.410832 A
3629 A 24.415620 3.500432 1.406929 A
3630 A -10.551340 13.541140 13.475060 A
3631 A -10.751340 14.447650 13.224930 A
3632 A -11.102360 14.814600 12.406130 A
3633 A -11.548310 14.587890 11.569750 A
3634 A -11.894450 13.944950 10.970220 A
3635 A -11.399650 13.318640 10.446450 A
3636 B -10.509010 13.146380 10.799810 B
3637 B -9.640951 13.020650 11.206030 B
3638 B -9.283573 13.198130 12.053930 B
3639 B -8.613139 12.973090 12.731480 B
3640 B -7.998648 12.958950 13.488080 B
3641 B -7.125993 12.723370 13.881220 B
3642 B -6.218378 12.860950 14.175000 B
3643 A -5.538352 13.449270 14.569280 A
3644 A -5.947197 14.269700 14.881190 A
3645 A -6.837023 14.068160 15.109970 A
3646 A -7.523998 13.406580 14.792380 A
3647 A -7.071815 12.902060 15.488500 A
3648 A -6.581032 12.623330 16.291390 A
3649 A -1.416818 -8.336800 14.375630 A
3650 A -1.411827 -8.474376 13.453070 A
3651 A -1.261410 -7.710651 12.938450 A
3652 A -1.650039 -6.848762 12.576120 A
3653 A -2.235729 -6.087679 12.655720 A
3654 A -1.915807 -5.343910 12.110300 A
3655 B -2.151783 -4.683679 11.399270 B
3656 B -1.607376 -4.355525 10.693140 B
3657 B -1.489461 -4.519219 9.766771 B
3658 B -1.004006 -5.272864 9.428899 B
3659 B -0.205918 -5.633167 9.799266 B
3660 B 0.692415 -5.592371 10.142770 B
3661 B 1.232104 -4.769673 10.026290 B
3662 A 1.123586 -4.054389 9.420972 A
3663 A 0.967814 -3.693784 8.539268 A
3664 A 0.683551 -3.611573 7.615070 A
3665 A -0.073589 -3.153670 7.310516 A
3666 A -0.838635 -2.667308 7.083892 A
3667 A -1.461024 -2.022278 6.831707 A
3668 A 2.317421 12.705580 9.492857 A
3669 A 2.599097 12.426230 8.604337 A
3670 A 2.675139 12.086980 7.732729 A
3671 A 3.480791 12.498480 7.401644 A
3672 A 4.188409 13.223730 7.228046 A
3673 A 4.691333 13.792730 7.943377 A
3674 B 5.565901 14.036850 7.711801 B
3675 B 6.420932 14.024420 7.237644 B
3676 B 6.740258 14.335130 6.367368 B
3677 B 5.950962 14.859200 5.900996 B
3678 B 5.219328 14.456010 5.248403 B
3679 B 4.645535 13.910440 5.819465 B
3680 B 4.314516 14.097900 6.657152 B
3681 A 4.343830 15.051760 6.781526 A
3682 A 4.760143 15.927050 7.068777 A
3683 A 5.674727 15.749440 7.325842 A
3684 A 6.238552 15.357110 7.929540 A
3685 A 6.182825 15.480910 8.871131 A
3686 A 5.797132 15.354130 9.733120 A
3687 A 2.527152 -19.145020 17.392940 A
3688 A 1.570690 -19.394790 17.264520 A
3689 A 0.714946 -19.343700 16.826220 A
3690 A -0.067169 -19.031560 16.324780 A
3691 A -0.332024 -18.737960 15.471680 A
3692 A -0.608102 -18.926770 14.582870 A
3693 B -1.267023 -19.141800 13.936290 B
3694 B -1.554166 -20.033880 13.838270 B
3695 B -1.254130 -20.810580 14.341400 B
3696 B -0.313695 -20.799300 14.391890 B
3697 B -0.230990 -20.794080 15.354450 B
3698 B -0.965991 -21.242020 15.774770 B
3699 B -1.750570 -21.393930 16.333620 B
3700 A -2.477424 -21.981990 16.659450 A
3701 A -2.639016 -22.970190 16.849150 A
3702 A -3.170128 -23.677680 17.232030 A
3703 A -3.774652 -24.336780 17.619400 A
3704 A -3.873175 24.948230 18.341320 A
3705 A -4.294265 24.118260 18.512400 A
3706 A -7.752828 -15.754380 -13.496220 A
3707 A -7.769781 -16.349800 -12.767710 A
3708 A -6.871828 -16.786140 -12.735550 A
3709 A -6.041829 -16.430920 -13.217450 A
3710 A -5.402641 -15.808390 -13.301830 A
3711 A -4.667861 -15.127880 -13.202520 A
3712 B -4.438887 -14.215410 -13.005630 B
3713 B -4.010618 -13.449500 -13.403410 B
3714 B -4.226582 -12.684440 -12.908370 B
3715 B -4.957722 -12.384520 -12.270320 B
3716 B -5.703791 -12.910330 -12.099570 B
3717 B -5.828667 -13.681580 -12.584020 B
3718 B -5.902864 -14.439830 -11.969270 B
3719 A -6.430623 -15.018610 -11.392910 A
3720 A -6.110225 -15.557040 -10.712600 A
3721 A -6.108706 -16.338200 -10.180540 A
3722 A -5.858914 -17.226390 -10.000790 A
3723 A -6.559385 -17.844350 -9.771548 A
3724 A -7.191901 -18.386180 -9.322444 A
3725 A 10.076750 1.243535 12.052340 A
3726 A 10.821880 0.727067 12.145040 A
3727 A 10.559040 0.180916 12.882420 A
3728 A 10.185600 0.789694 13.487280 A
3729 A 10.819330 1.225501 13.962910 A
3730 A 11.742870 0.883005 13.993910 A
3731 B 12.354970 0.540011 13.332170 B
3732 B 12.238160 0.374295 12.406150 B
3733 B 12.181960 0.158801 11.471430 B
3734 B 11.499310 -0.093705 10.848630 B
3735 B 10.617270 -0.378276 11.020870 B
3736 B 10.873260 -0.849760 11.838700 B
3737 B 11.844340 -1.036213 11.913360 B
3738 A 12.058290 -1.941703 12.060730 A
3739 A 11.942530 -2.394964 12.921520 A
3740 A 11.995730 -2.520789 13.883090 A
3741 A 12.501840 -1.763906 14.060240 A
3742 A 13.180410 -1.138450 14.409250 A
3743 A 13.898090 -0.635489 14.832950 A
3744 A -7.902262 0.965550 10.213750 A
3745 A -7.906156 0.916911 11.213290 A
3746 A -8.338393 0.902232 12.071510 A
3747 A -8.568288 1.407010 12.877480 A
3748 A -8.369523 2.154796 12.314140 A
3749 A -8.115624 2.864547 11.705580 A
3750 B -8.617532 3.634086 11.918860 B
3751 B -9.555365 3.591237 11.720120 B
3752 B -10.385100 3.561647 12.175410 B
3753 B -11.163450 3.007569 12.196760 B
3754 B -11.816170 2.350222 12.549720 B
3755 B -11.868580 1.689437 13.255810 B
3756 B -11.071230 1.624982 13.841960 B
3757 A -10.275830 1.969424 13.601860 A
3758 A -10.053520 1.954349 12.699820 A
3759 A -9.978657 1.849531 11.717500 A
3760 A -10.141440 0.931881 11.419320 A
3761 A -10.463860 0.033473 11.450220 A
3762 A -11.008230 -0.683231 11.160670 A
3763 A -3.981691 -2.956793 -1.732559 A
3764 A -4.859604 -3.473485 -2.048052 A
3765 A -5.712608 -3.670712 -2.541352 A
3766 A -5.710573 -3.058945 -3.195123 A
3767 A -4.813951 -3.018178 -3.486585 A
3768 A -4.279435 -3.473921 -4.126696 A
3769 B -3.870200 -4.104063 -4.725814 B
3770 B -3.717474 -4.799723 -4.225805 B
3771 B -4.302645 -4.878871 -3.513353 B
3772 B -3.936284 -4.963016 -2.594376 B
3773 B -3.228391 -5.115965 -1.885462 B
3774 B -2.260323 -5.212147 -1.687438 B
3775 B -1.291588 -5.295126 -1.770326 B
3776 A -1.034420 -6.261350 -1.573510 A
3777 A -0.615807 -6.819750 -0.886452 A
3778 A -0.502718 -6.432888 -0.029473 A
3779 A 0.280977 -6.303354 0.447271 A
3780 A 0.847326 -5.996787 -0.285927 A
3781 A 1.440718 -5.492238 -0.847044 A
3782 A 24.801780 20.964760 -0.682484 A
3783 A 24.545910 20.143280 -1.026328 A
3784 A 24.780650 19.368070 -1.529150 A
3785 A -24.612820 18.507870 -1.639927 A
3786 A -23.889100 17.874660 -1.743915 A
3787 A -23.182630 17.235320 -1.858586 A
3788 B -22.877410 17.034460 -2.760485 B
3789 B -22.743600 16.804340 -3.668133 B
3790 B -22.448170 16.385100 -4.496340 B
3791 B -22.647060 15.482230 -4.851724 B
3792 B -23.043740 14.645300 -4.848738 B
3793 B -23.034740 14.030960 -4.123577 B
3794 B -22.998160 14.374910 -3.186044 B
3795 A -23.403610 15.055000 -2.593582 A
3796 A -23.479650 15.627350 -1.835092 A
3797 A -22.820860 16.149030 -1.369330 A
3798 A -22.186540 15.522650 -1.061587 A
3799 A -21.679290 14.791530 -1.531555 A
3800 A -21.143950 14.584160 -2.316462 A
3801 A 6.848124 -2.657900 -21.746350 A
3802 A 7.764478 -2.594852 -21.306790 A
3803 A 8.181300 -2.331205 -20.500080 A
3804 A 7.811148 -2.031513 -19.680210 A
3805 A 7.223365 -2.483883 -19.059070 A
3806 A 6.404188 -2.177077 -18.644640 A
3807 B 6.140552 -1.507954 -18.023860 B
3808 B 5.604908 -1.578051 -17.228120 B
3809 B 4.696777 -1.357907 -17.008300 B
3810 B 3.887533 -1.182256 -17.542780 B
3811 B 3.290555 -1.162599 -18.298600 B
3812 B 3.211059 -1.682879 -19.106550 B
3813 B 2.567018 -2.391044 -19.028120 B
3814 A 1.944491 -2.380216 -18.328060 A
3815 A 2.203836 -2.370917 -17.396110 A
3816 A 2.398969 -2.834651 -16.571620 A
3817 A 2.615755 -3.583586 -16.006940 A
3818 A 2.587370 -4.477164 -15.750690 A
3819 A 1.968341 -5.103996 -15.376300 A
3820 A 19.713340 10.663950 -18.167800 A
3821 A 19.136760 11.295850 -17.768740 A
3822 A 18.772950 12.147360 -17.509810 A
3823 A 18.204730 12.678260 -16.906390 A
3824 A 17.243250 12.756400 -16.931870 A
3825 A 16.408510 12.537140 -17.334330 A
3826 B 15.439940 12.350710 -17.412800 B
3827 B 14.794610 11.611700 -17.242740 B
3828 B 13.910220 11.443920 -16.784220 B
3829 B 13.797760 11.621540 -15.847680 B
3830 B 14.086280 11.928130 -14.999220 B
3831 B 14.655370 12.363610 -15.663540 B
3832 B 14.831360 11.427490 -15.569400 B
3833 A 15.742810 11.346230 -15.948200 A
3834 A 15.844750 10.662630 -16.673610 A
3835 A 15.281680 10.124520 -17.228530 A
3836 A 14.715750 10.149390 -16.488700 A
3837 A 14.041430 10.247200 -15.785860 A
3838 A 13.676020 9.355642 -15.477790 A
3839 A -17.618410 15.076980 22.499920 A
3840 A -18.522190 15.424400 22.335480 A
3841 A -19.200950 15.436630 21.589340 A
3842 A -19.368200 15.631480 20.669380 A
3843 A -19.548390 16.049980 19.824680 A
3844 A -20.024250 16.601410 19.211750 A
3845 B -20.083930 16.905500 18.315920 B
3846 B -19.625490 17.456770 17.700060 B
3847 B -18.836210 18.038630 17.768950 B
3848 B -18.245250 17.873190 18.516220 B
3849 B -17.609540 17.530790 19.160240 B
3850 B -17.025870 16.920700 19.652610 B
3851 B -16.478630 16.141350 19.581900 B
3852 A -16.194600 15.380370 19.153460 A
3853 A -15.535680 14.847430 18.719080 A
3854 A -14.611750 14.989350 18.646880 A
3855 A -13.692420 15.254930 18.579480 A
3856 A -13.141420 15.803490 19.087340 A
3857 A -13.074390 16.229370 19.963750 A
3858 A -4.877934 -21.339810 23.778620 A
3859 A -4.766676 -20.351080 23.637130 A
3860 A -5.067820 -19.579480 23.174960 A
3861 A -5.249111 -18.887600 22.498180 A
3862 A -5.652855 -18.104800 22.041060 A
3863 A -5.689798 -17.176180 21.777470 A
3864 B -6.094296 -16.308200 22.039860 B
3865 B -5.585085 -15.496390 22.110780 B
3866 B -4.861367 -15.548460 22.764260 B
3867 B -3.942874 -15.375550 22.948010 B
3868 B -3.693145 -16.272610 22.866430 B
3869 B -3.636919 -17.242520 22.894050 B
3870 B -3.814083 -17.807510 22.086140 B
3871 A -4.238510 -18.062910 21.247860 A
3872 A -4.283694 -17.793250 20.337460 A
3873 A -3.354702 -17.981420 20.193170 A
3874 A -2.435171 -18.099610 19.926930 A
3875 A -1.767187 -18.798940 19.946540 A
3876 A -1.207536 -19.579080 19.980030 A
3877 A 15.371300 -0.591349 -14.344190 A
3878 A 16.285780 -0.305871 -14.321660 A
3879 A 17.226240 -0.154716 -14.144650 A
3880 A 17.994780 -0.448837 -13.627530 A
3881 A 18.533030 -1.230395 -13.296050 A
3882 A 18.202840 -2.038070 -13.646750 A
3883 B 17.868270 -2.655198 -14.270320 B
3884 B 17.973720 -3.431048 -14.843730 B
3885 B 18.772590 -3.967732 -14.716100 B
3886 B 18.943350 -4.813551 -14.216670 B
3887 B 18.582940 -5.219880 -13.433840 B
3888 B 18.107810 -4.736967 -12.734680 B
3889 B 17.474340 -4.494393 -12.068930 B
3890 A 17.078200 -4.050089 -11.309410 A
3891 A 17.321070 -3.584836 -10.492850 A
3892 A 17.732980 -3.553542 -9.586328 A
3893 A 18.202700 -2.757901 -9.295290 A
3894 A 18.546130 -1.854968 -9.463828 A
3895 A 19.079620 -1.056974 -9.234492 A
3896 A 12.974220 -8.473247 -20.263780 A
3897 A 12.693860 -7.655042 -20.710560 A
3898 A 12.474580 -6.890413 -21.293870 A
3899 A 12.086890 -6.031516 -21.624530 A
3900 A 11.521240 -6.104542 -22.354570 A
3901 A 10.841610 -6.544375 -22.885540 A
3902 B 11.114400 -7.466126 -23.131920 B
3903 B 10.567030 -7.912220 -22.474340 B
3904 B 10.021670 -7.822859 -21.661280 B
3905 B 9.463429 -7.456506 -20.893720 B
3906 B 9.433369 -7.133701 -19.949340 B
3907 B 8.895233 -7.672118 -19.231570 B
3908 B 8.965714 -8.229287 -18.466080 B
3909 A 8.633742 -7.501782 -17.938770 A
3910 A 8.116096 -6.738922 -17.675990 A
3911 A 7.693978 -7.551469 -17.356580 A
3912 A 6.972933 -8.078802 -17.721620 A
3913 A 6.242458 -8.221525 -18.346050 A
3914 A 5.924364 -7.707091 -19.095220 A
3915 A -18.896760 -13.980030 -4.073282 A
3916 A -18.763130 -14.742710 -4.643009 A
3917 A -18.821160 -15.631070 -4.950023 A
3918 A -18.013400 -16.041780 -5.286707 A
3919 A -17.840920 -16.962230 -5.522277 A
3920 A -17.757060 -17.820360 -5.078876 A
3921 B -17.960560 -18.558030 -4.486531 B
3922 B -18.547760 -19.059200 -5.081976 B
3923 B -18.796180 -19.070420 -6.015368 B
3924 B -18.995370 -18.667800 -6.853725 B
3925 B -18.995570 -17.914280 -7.447507 B
3926 B -18.563950 -17.070070 -7.618692 B
3927 B -18.285130 -16.160940 -7.779442 B
3928 A -17.870860 -15.489070 -8.291539 A
3929 A -17.202800 -16.143520 -8.095780 A
3930 A -16.744630 -16.973930 -7.909158 A
3931 A -15.764840 -17.099180 -7.754440 A
3932 A -15.116590 -16.409870 -7.488436 A
3933 A -14.837620 -15.492600 -7.363266 A
3934 A 2.203498 -19.140030 -24.294590 A
3935 A 2.681131 -18.752060 -23.520070 A
3936 A 3.407578 -18.737260 -22.906590 A
3937 A 4.309011 -18.966370 -22.829660 A
3938 A 5.177979 -18.876260 -23.217850 A
3939 A 5.847008 -18.434560 -23.753770 A
3940 B 6.421327 -17.708680 -24.083040 B
3941 B 6.543715 -16.768920 -24.154190 B
3942 B 6.788374 -16.017450 -23.617700 B
3943 B 7.018244 -15.627690 -22.729470 B
3944 B 6.775205 -15.590930 -21.820320 B
3945 B 6.222084 -16.401360 -21.827720 B
3946 B 6.417110 -17.249080 -22.188290 B
3947 A 7.282288 -17.533830 -22.617720 A
3948 A 7.556987 -16.674510 -22.170730 A
3949 A 7.911639 -16.821680 -21.301510 A
3950 A 8.790892 -16.885120 -21.676770 A
3951 A 9.652866 -17.154120 -21.452680 A
3952 A 10.565640 -16.782210 -21.272840 A
3953 A -2.261608 -14.069170 1.182865 A
3954 A -2.083658 -15.061440 1.334837 A
3955 A -1.854195 -15.672260 2.000516 A
3956 A -1.051855 -16.203550 1.914712 A
3957 A -0.635322 -17.036820 1.711092 A
3958 A -0.312935 -16.845310 2.574030 A
3959 B 0.041815 -17.093600 3.454734 B
3960 B 0.057971 -17.326350 4.394118 B
3961 B -0.640365 -16.935330 5.076404 B
3962 B -1.518208 -16.878830 5.654685 B
3963 B -2.458968 -16.949700 5.713014 B
3964 B -3.293074 -17.262860 5.277810 B
3965 B -3.315184 -17.581110 4.336145 B
3966 A -3.121008 -18.269630 3.700732 A
3967 A -2.652295 -19.084560 3.462547 A
3968 A -1.900351 -18.635240 2.772925 A
3969 A -1.312180 -18.782210 2.065859 A
3970 A -0.981086 -19.178740 1.207083 A
3971 A -0.142854 -18.573160 0.995823 A
3972 A 18.665280 -22.742790 16.110310 A
3973 A 19.458350 -22.221600 16.095440 A
3974 A 20.244920 -21.881910 16.518900 A
3975 A 20.894760 -21.188310 16.319180 A
3976 A 21.013400 -20.297120 16.084330 A
3977 A 20.962770 -19.592820 15.473610 A
3978 B 20.252440 -19.169350 14.962620 B
3979 B 19.311610 -19.388920 14.874190 B
3980 B 18.519090 -19.719780 14.417270 B
3981 B 17.620600 -20.047080 14.349280 B
3982 B 16.944230 -20.212960 14.947290 B
3983 B 16.449790 -20.202680 15.766680 B
3984 B 17.330780 -20.465980 16.009110 B
3985 A 18.099090 -20.855840 16.424140 A
3986 A 18.934460 -20.691270 16.846780 A
3987 A 19.309920 -19.852650 16.711980 A
3988 A 19.100990 -18.929540 16.589660 A
3989 A 18.114890 -19.014790 16.721540 A
3990 A 17.300500 -18.548820 16.441000 A
3991 A -1.876875 -1.371436 -2.576893 A
3992 A -2.616089 -0.766424 -2.179221 A
3993 A -3.198905 -1.475316 -2.726371 A
3994 A -3.547011 -1.485022 -3.574189 A
3995 A -3.991305 -0.866847 -2.923949 A
3996 A -4.240051 -0.144993 -3.597632 A
3997 B -3.619579 0.497785 -3.328386 B
3998 B -2.860115 0.597016 -3.901302 B
3999 B -3.267870 -0.054824 -4.492763 B
4000 B -2.967880 -0.615123 -5.265568 B
4001 B -2.035999 -0.666345 -5.178173 B
4002 B -1.549256 -1.334204 -4.555072 B
4003 B -0.747793 -1.399384 -5.118059 B
4004 A -0.307603 -0.613621 -5.427279 A
4005 A 0.440385 0.035396 -5.436356 A
4006 A 1.068926 0.720418 -5.519174 A
4007 A 1.817560 1.032130 -6.104178 A
4008 A 2.659087 1.007104 -6.600886 A
4009 A 3.543168 1.308880 -6.896085 A
4010 A 14.062890 15.624440 -10.546140 A
4011 A 14.830310 15.901040 -10.064450 A
4012 A 15.724300 15.836040 -9.642370 A
4013 A 16.398620 15.977460 -9.024548 A
4014 A 16.916300 16.747810 -8.676554 A
4015 A 17.442440 17.570300 -8.635626 A
4016 B 18.138780 18.167900 -8.926107 B
4017 B 18.770660 18.033200 -9.653040 B
4018 B 19.025650 17.102750 -9.707835 B
4019 B 19.316210 16.268500 -10.072130 B
4020 B 18.759010 15.516960 -9.887160 B
4021 B 18.608180 14.648850 -9.488982 B
4022 B 17.883480 14.320860 -8.920286 B
4023 A 17.163440 14.061340 -8.335793 A
4024 A 16.577530 14.192400 -7.606982 A
4025 A 16.477790 14.518160 -6.692608 A
4026 A 16.529970 14.446000 -5.752171 A
4027 A 17.001870 14.471080 -4.940940 A
4028 A 17.815610 14.485330 -4.407875 A
4029 A -10.492580 19.029030 2.830568 A
4030 A -9.851843 18.606210 2.237761 A
4031 A -8.968956 18.173610 2.032269 A
4032 A -8.259239 17.845190 1.484508 A
4033 A -7.692839 17.528300 0.771364 A
4034 A -7.361322 17.365050 -0.107394 A
4035 B -7.610291 17.082240 -1.013489 B
4036 B -7.567916 17.035760 -1.929537 B
4037 B -8.274823 16.348260 -1.826294 B
4038 B -8.745296 15.578240 -1.552640 B
4039 B -9.402428 15.209040 -0.827033 B
4040 B -10.208600 15.135400 -0.306939 B
4041 B -10.650060 15.805110 -0.805135 B
4042 A -10.388890 16.584690 -1.325010 A
4043 A -10.069500 17.298010 -1.879309 A
4044 A -10.266100 17.675280 -2.711284 A
4045 A -10.994250 17.919740 -3.287364 A
4046 A -11.745640 17.547980 -3.790621 A
4047 A -12.236460 16.929250 -4.299048 A
4048 A 22.883930 -19.699390 -23.065920 A
4049 A 23.602240 -19.205280 -22.694350 A
4050 A 24.185350 -18.720330 -22.074450 A
4051 A 24.832110 -18.009060 -22.097100 A
4052 A -24.935670 -17.209710 -21.598620 A
4053 A 24.686670 -16.448150 -21.100670 A
4054 B 24.067470 -16.311390 -20.387940 B
4055 B 23.655900 -15.848390 -19.652940 B
4056 B 24.055860 -14.981410 -19.660900 B
4057 B 24.554740 -14.198670 -19.724060 B
4058 B -24.440690 -13.914130 -19.628820 B
4059 B -23.781280 -14.631620 -19.815610 B
4060 B -23.952640 -15.578760 -19.816690 B
4061 A -24.635090 -16.243230 -19.686130 A
4062 A -24.768860 -17.221820 -19.563180 A
4063 A -24.323490 -17.932060 -19.071110 A
4064 A -24.233410 -17.890040 -18.137910 A
4065 A -24.750970 -17.679150 -17.362350 A
4066 A 24.119010 -17.633850 -17.344290 A
4067 A 13.767970 4.287262 6.169627 A
4068 A 13.864820 3.757366 6.948128 A
4069 A 13.915340 3.173346 7.691656 A
4070 A 13.752990 2.861808 8.603484 A
4071 A 13.652340 2.834458 9.554027 A
4072 A 12.980860 3.332317 10.048870 A
4073 B 12.722660 4.259408 9.907145 B
4074 B 13.011950 5.203465 9.691026 B
4075 B 13.246030 5.666996 8.908700 B
4076 B 13.559110 5.981216 8.068286 B
4077 B 13.608900 5.512593 7.279218 B
4078 B 12.957860 5.196160 6.690105 B
4079 B 12.074190 4.830564 6.694058 B
4080 A 11.437150 4.223066 7.136182 A
4081 A 11.578970 3.302222 7.397488 A
4082 A 12.252550 2.696294 7.149197 A
4083 A 12.969250 2.037163 7.180480 A
4084 A 13.577150 1.635301 7.776579 A
4085 A 14.039900 1.271099 8.555008 A
4086 A -15.954030 14.469880 -15.265410 A
4087 A -16.249870 15.239600 -14.782920 A
4088 A -16.661380 16.105330 -14.737690 A
4089 A -16.134460 16.828920 -14.373840 A
4090 A -15.580750 17.152420 -13.659230 A
4091 A -15.061650 16.922230 -12.913570 A
4092 B -14.653620 16.205030 -13.428570 B
4093 B -14.342750 15.680150 -14.224980 B
4094 B -13.645340 15.715730 -14.857920 B
4095 B -12.861180 15.543030 -15.332100 B
4096 B -12.088880 15.115240 -15.698430 B
4097 B -11.220530 15.478850 -15.977380 B
4098 B -11.670620 16.315670 -15.754470 B
4099 A -12.124720 16.798730 -15.039840 A
4100 A -12.763350 17.049210 -14.354110 A
4101 A -13.084970 17.298290 -13.468710 A
4102 A -12.365590 16.879870 -12.937890 A
4103 A -11.693470 16.275420 -12.595530 A
4104 A -11.130680 15.956950 -11.837470 A
4105 A 17.935600 -10.589630 6.280182 A
4106 A 17.589660 -11.520650 6.108795 A
4107 A 17.196080 -12.334200 5.743635 A
4108 A 16.517640 -12.935570 6.006063 A
4109 A 16.186650 -12.079930 6.253411 A
4110 A 16.069720 -11.717480 7.139339 A
4111 B 16.468510 -12.608840 7.475193 B
4112 B 16.522520 -13.589140 7.670366 B
4113 B 15.850750 -14.204670 7.858569 B
4114 B 14.899910 -14.260010 7.705274 B
4115 B 14.236060 -13.625400 7.897760 B
4116 B 13.367540 -13.641600 8.261044 B
4117 B 13.034980 -12.832970 7.685896 B
4118 A 12.976360 -12.155810 8.354148 A
4119 A 12.796160 -12.011810 9.252300 A
4120 A 12.088750 -11.639850 9.796218 A
4121 A 11.245730 -12.112810 10.047400 A
4122 A 10.653120 -12.859480 9.766739 A
4123 A 10.471190 -13.159890 8.854458 A
4124 A 7.372502 8.442444 20.175930 A
4125 A 7.471447 7.912680 19.368570 A
4126 A 7.745854 7.598561 18.562350 A
4127 A 7.650126 8.438289 17.994300 A
4128 A 6.763062 8.280166 18.307140 A
4129 A 6.449478 7.567545 17.755100 A
4130 B 6.380192 6.646691 17.983900 B
4131 B 6.119562 5.737180 17.794920 B
4132 B 6.328578 5.338139 16.972030 B
4133 B 6.930557 5.875681 16.305280 B
4134 B 7.424208 6.286695 15.630010 B
4135 B 7.161191 7.038873 15.157560 B
4136 B 6.456909 6.863395 14.495960 B
4137 A 5.760989 6.600657 15.048750 A
4138 A 5.765947 6.361042 15.971970 A
4139 A 5.100802 5.729605 16.295650 A
4140 A 5.411174 4.786615 16.458760 A
4141 A 5.538592 4.621328 15.479910 A
4142 A 6.255638 4.355928 14.772290 A
4143 A 18.065690 4.287660 23.586240 A
4144 A 18.201300 4.037412 22.657880 A
4145 A 18.629290 3.190208 22.464220 A
4146 A 19.058720 2.327676 22.360840 A
4147 A 19.858840 1.893959 22.649950 A
4148 A 20.267700 1.138747 23.130530 A
4149 B 19.963850 0.269770 23.458190 B
4150 B 19.217530 -0.306810 23.584150 B
4151 B 19.154860 -0.150594 24.534320 B
4152 B 19.278790 -0.060006 -24.397900 B
4153 B 19.635610 -0.420766 -23.606610 B
4154 B 19.698060 -1.159325 -23.000410 B
4155 B 19.080350 -1.331400 -22.266620 B
4156 A 18.303530 -0.809895 -22.204250 A
4157 A 18.126880 -0.527018 -23.076140 A
4158 A 18.063500 0.098583 -23.770170 A
4159 A 17.333600 -0.106935 -24.313060 A
4160 A 16.469850 -0.357203 -24.039230 A
4161 A 15.959700 -0.046384 -23.267200 A
4162 A 14.950300 -2.483902 -1.886620 A
4163 A 15.166520 -3.305515 -2.466612 A
4164 A 16.074740 -3.512908 -2.758027 A
4165 A 16.857330 -2.916555 -2.656994 A
4166 A 16.797980 -1.981728 -2.817927 A
4167 A 17.369080 -2.034457 -3.627901 A
4168 B 17.888830 -2.078072 -4.442032 B
4169 B 18.797430 -2.253983 -4.527766 B
4170 B 19.312640 -1.642142 -5.018642 B
4171 B 18.386740 -1.242988 -4.920877 B
4172 B 17.713200 -0.939399 -4.363191 B
4173 B 17.385520 -1.200387 -5.246918 B
4174 B 17.396700 -0.306579 -5.739418 B
4175 A 16.499720 -0.771258 -5.871654 A
4176 A 15.944700 -1.420744 -6.085600 A
4177 A 15.265780 -1.833586 -5.658518 A
4178 A 14.696060 -2.189728 -5.042555 A
4179 A 14.443580 -1.843246 -4.284417 A
4180 A 15.002230 -1.807283 -3.513639 A
4181 A -21.750370 19.279980 2.496161 A
4182 A -20.841630 19.407350 2.779028 A
4183 A -20.128970 19.192040 3.420942 A
4184 A -19.793500 18.789390 4.193956 A
4185 A -20.425630 18.617340 4.880216 A
4186 A -21.309130 18.964330 4.875794 A
4187 B -22.202970 19.348520 4.688137 B
4188 B -22.478200 20.125240 5.101314 B
4189 B -22.771750 20.686740 5.873374 B
4190 B -22.467840 21.604940 5.748900 B
4191 B -22.459680 22.556580 5.871656 B
4192 B -23.043220 22.633090 5.146960 B
4193 B -23.660890 22.763880 4.435578 B
4194 A -24.504030 22.856950 3.980245 A
4195 A 24.916840 23.449860 3.439305 A
4196 A -24.392750 24.170270 3.515160 A
4197 A -23.798790 24.673850 4.061275 A
4198 A -23.171920 24.768820 4.761333 A
4199 A -22.655510 -24.926570 5.543444 A
4200 A -18.204310 13.922060 -20.371120 A
4201 A -18.897290 13.507620 -20.859450 A
4202 A -19.765310 13.270280 -21.220790 A
4203 A -20.466730 12.598180 -21.187390 A
4204 A -21.332610 12.157140 -21.174810 A
4205 A -21.939620 11.921080 -20.452780 A
4206 B -22.382390 12.056090 -19.626860 B
4207 B -22.699480 12.554250 -18.875170 B
4208 B -22.758370 13.119460 -18.106650 B
4209 B -22.274280 13.609080 -17.454040 B
4210 B -21.485310 13.910370 -16.964590 B
4211 B -20.776490 13.220160 -16.879600 B
4212 B -20.773600 12.301020 -17.206890 B
4213 A -21.384700 11.565490 -17.339830 A
4214 A -21.881800 11.051460 -16.714070 A
4215 A -21.494960 11.441170 -15.921320 A
4216 A -21.244230 12.228940 -15.381640 A
4217 A -20.890060 13.003270 -14.903750 A
4218 A -20.480810 13.696010 -14.398950 A
4219 A -24.623790 -7.083334 12.487320 A
4220 A -24.026550 -6.294485 12.639570 A
4221 A -23.170190 -5.890242 12.937940 A
4222 A -22.632500 -5.166749 13.080940 A
4223 A -22.628450 -4.177539 12.795560 A
4224 A -22.815780 -3.475801 12.059200 A
4225 B -23.528520 -2.819118 12.233250 B
4226 B -23.557630 -2.219642 11.442470 B
4227 B -23.107560 -2.337418 10.669630 B
4228 B -22.941620 -2.926232 9.900834 B
4229 B -23.172390 -2.787349 9.041083 B
4230 B -23.363520 -1.878369 9.126627 B
4231 B -23.686630 -1.102656 9.664843 B
4232 A -24.411260 -1.443681 9.165021 A
4233 A -24.558070 -2.197661 8.610806 A
4234 A -24.154270 -1.865018 7.747340 A
4235 A -24.332860 -1.980931 6.822711 A
4236 A -23.545340 -1.660131 6.397397 A
4237 A -22.772550 -1.626170 5.854805 A
4238 A 18.441850 0.717061 -10.384830 A
4239 A 17.639480 0.368347 -10.799210 A
4240 A 16.788800 -0.111587 -10.792270 A
4241 A 15.866080 -0.425976 -10.776690 A
4242 A 15.041260 -0.827754 -10.512580 A
4243 A 14.573880 -0.884662 -9.675533 A
4244 B 14.695430 -0.102109 -9.108772 B
4245 B 15.402420 0.493465 -9.296494 B
4246 B 16.163780 1.020568 -9.568376 B
4247 B 16.965000 1.338584 -9.928945 B
4248 B 17.440900 2.044395 -10.370530 B
4249 B 17.495040 2.355747 -11.267520 B
4250 B 17.494460 2.705651 -12.188200 B
4251 A 16.810310 2.723108 -12.876530 A
4252 A 16.002580 2.217815 -12.724050 A
4253 A 15.389330 1.574286 -12.446260 A
4254 A 15.565930 2.149506 -11.672740 A
4255 A 15.487820 2.391966 -10.680080 A
4256 A 14.718640 2.903294 -10.486530 A
4257 A 2.822431 21.385200 -2.090136 A
4258 A 2.903199 20.596050 -1.541123 A
4259 A 3.593085 20.005500 -1.170349 A
4260 A 4.039354 19.258170 -0.964360 A
4261 A 4.548796 19.113240 -1.725586 A
4262 A 5.048771 19.047990 -2.570745 A
4263 B 5.244268 19.914260 -2.301554 B
4264 B 5.828857 20.528630 -1.800600 B
4265 B 5.969747 21.026280 -0.990975 B
4266 B 5.882802 20.866350 -0.082641 B
4267 B 5.438390 20.508760 0.655469 B
4268 B 4.780006 20.201900 1.269448 B
4269 B 4.275925 19.434240 1.526792 B
4270 A 4.228672 18.606080 0.982558 A
4271 A 3.889054 18.216070 0.172357 A
4272 A 3.168026 17.761280 -0.276303 A
4273 A 2.451405 17.413230 0.270646 A
4274 A 2.929053 17.560750 1.144399 A
4275 A 2.895746 17.363490 2.049217 A
4276 A -14.675410 0.482338 4.476632 A
4277 A -15.432440 1.048965 4.993229 A
4278 A -15.833610 1.822205 5.377786 A
4279 A -16.440300 2.505394 5.138924 A
4280 A -16.980220 3.151745 4.718388 A
4281 A -17.743170 3.503270 5.144279 A
4282 B -17.686120 3.372330 6.113136 B
4283 B -17.419340 3.968068 6.833764 B
4284 B -17.196110 4.222874 7.717696 B
4285 B -18.056230 4.136966 8.077952 B
4286 B -18.792340 3.635126 8.063284 B
4287 B -19.517600 3.187507 8.540975 B
4288 B -20.140990 3.354804 9.214190 B
4289 A -20.610110 3.903631 9.764450 A
4290 A -20.877710 4.504272 10.422970 A
4291 A -20.999480 5.374516 10.825260 A
4292 A -21.493500 6.091137 11.313920 A
4293 A -21.762070 6.865997 11.772490 A
4294 A -21.543190 7.529261 12.368790 A
4295 A 9.645519 -14.638320 22.996860 A
4296 A 10.354570 -14.041560 22.785220 A
4297 A 11.189630 -13.683690 23.034840 A
4298 A 10.861200 -13.799810 23.988440 A
4299 A 10.597980 -14.111730 24.891170 A
4300 A 10.647390 -14.601940 -24.193120 A
4301 B 11.268220 -15.210840 -23.845610 B
4302 B 11.437820 -15.690920 -24.666630 B
4303 B 11.130930 -16.037940 24.400420 B
4304 B 10.778800 -16.949070 24.523910 B
4305 B 10.349430 -17.122010 -24.540480 B
4306 B 10.933970 -17.498500 -23.844850 B
4307 B 11.621200 -17.184040 -23.171920 B
4308 A 12.388800 -16.612500 -23.297360 A
4309 A 12.390550 -15.878370 -22.697170 A
4310 A 11.742950 -15.191260 -22.483590 A
4311 A 10.924240 -14.773820 -22.809990 A
4312 A 9.999020 -14.657710 -23.056090 A
4313 A 9.606978 -15.414610 -22.635570 A
4314 A 15.148100 11.562130 12.153260 A
4315 A 14.426930 12.229350 12.305210 A
4316 A 14.036340 13.064210 12.549270 A
4317 A 14.541250 13.662650 13.118220 A
4318 A 14.784900 14.377790 13.775790 A
4319 A 15.060960 13.814620 14.549900 A
4320 B 14.501410 13.294850 15.125870 B
4321 B 13.891360 13.836790 15.660330 B
4322 B 13.384270 14.425510 16.252750 B
4323 B 12.728430 14.073860 16.847000 B
4324 B 12.155080 13.268570 16.781930 B
4325 B 11.810150 12.365660 16.727350 B
4326 B 12.487550 11.923820 16.169150 B
4327 A 12.608870 11.841520 15.240610 A
4328 A 12.381090 12.270720 14.408500 A
4329 A 11.888730 12.309840 13.579200 A
4330 A 11.454230 11.467650 13.480940 A
4331 A 11.506790 10.817530 14.210290 A
4332 A 11.095330 10.189790 14.802360 A
4333 A 2.417807 -24.281220 -17.333620 A
4334 A 3.425454 -23.844150 -17.252270 A
4335 A 3.739954 -23.892330 -18.133350 A
4336 A 4.101830 -23.149370 -18.611240 A
4337 A 4.490073 -22.532770 -19.147820 A
4338 A 5.267818 -22.522810 -18.498840 A
4339 B 5.570347 -22.612360 -19.340420 B
4340 B 5.914135 -21.764040 -19.717070 B
4341 B 6.456606 -20.994980 -19.543750 B
4342 B 6.716176 -20.569940 -18.799020 B
4343 B 7.433908 -20.326360 -19.558260 B
4344 B 7.849444 -19.414420 -19.409910 B
4345 B 8.514424 -19.192760 -18.709400 B
4346 A 8.620626 -18.430260 -19.299760 A
4347 A 9.140728 -18.202070 -18.593820 A
4348 A 9.067952 -18.690670 -17.834050 A
4349 A 8.189960 -18.666050 -17.388220 A
4350 A 7.283331 -18.564440 -17.035360 A
4351 A 6.344740 -18.361460 -17.040210 A
4352 A -4.190679 6.233558 21.362850 A
4353 A -3.425659 6.245500 21.977300 A
4354 A -2.592267 5.918986 22.325020 A
4355 A -1.918218 5.378431 22.811870 A
4356 A -1.923088 4.447633 22.512610 A
4357 A -1.526075 3.604910 22.883140 A
4358 B -2.110959 3.192917 23.512830 B
4359 B -2.977277 2.871696 23.776320 B
4360 B -3.700301 2.311974 23.820130 B
4361 B -4.480271 2.087757 23.346850 B
4362 B -4.504714 1.834862 22.433840 B
4363 B -5.067702 2.282651 21.806300 B
4364 B -5.809422 2.123932 21.272270 B
4365 A -6.207318 2.904322 21.665220 A
4366 A -5.793710 3.748297 21.922450 A
4367 A -4.830457 3.750626 21.937860 A
4368 A -3.876647 4.025367 22.125260 A
4369 A -3.241877 3.968375 22.834690 A
4370 A -2.747122 4.639944 23.302530 A
4371 A 23.370080 -15.507950 -23.131310 A
4372 A 23.479670 -16.061990 -22.429380 A
4373 A 23.498900 -16.894880 -21.904860 A
4374 A 23.077980 -17.572830 -21.320730 A
4375 A 23.008210 -18.229680 -20.636920 A
4376 A 22.901830 -19.003910 -20.046170 A
4377 B 23.120280 -19.533260 -19.231650 B
4378 B 22.489000 -19.882120 -18.575530 B
4379 B 21.840680 -20.361310 -18.123350 B
4380 B 21.215240 -20.363000 -17.425300 B
4381 B 22.031390 -20.432040 -16.879890 B
4382 B 22.890620 -20.721780 -16.625510 B
4383 B 23.421830 -20.346700 -15.904750 B
4384 A 22.587270 -20.175370 -15.383220 A
4385 A 21.792430 -20.693570 -15.137040 A
4386 A 21.285690 -21.510810 -15.277350 A
4387 A 20.478520 -20.926700 -15.066630 A
4388 A 20.394280 -20.174570 -14.474670 A
4389 A 20.084010 -19.375430 -14.009710 A
4390 A -23.662680 5.839395 8.282357 A
4391 A -23.693130 4.916920 8.277008 A
4392 A -24.661160 4.958515 8.252316 A
4393 A 24.929500 4.092434 8.528732 A
4394 A -24.457650 3.279904 8.906946 A
4395 A -24.076610 2.369273 8.827056 A
4396 B -23.316360 2.803652 9.309501 B
4397 B -23.009200 2.551656 10.213830 B
4398 B -23.747040 3.058817 10.332450 B
4399 B -22.830160 3.423312 10.737140 B
4400 B -23.011350 4.185084 11.262650 B
4401 B -22.598380 5.005217 11.072530 B
4402 B -23.062680 5.255887 11.890650 B
4403 A -22.977180 4.876479 12.849420 A
4404 A -22.228010 4.277888 13.150010 A
4405 A -21.629260 3.465728 12.964400 A
4406 A -20.980380 3.256470 12.298560 A
4407 A -20.246640 3.947779 12.179880 A
4408 A -19.620580 4.653636 12.503870 A
4409 A 1.720235 23.527950 17.530810 A
4410 A 2.246733 24.269550 17.935690 A
4411 A 2.834212 -24.944950 17.678700 A
4412 A 2.777951 -24.165370 17.022320 A
4413 A 2.032495 -23.620440 16.833870 A
4414 A 1.087669 -23.374850 16.697560 A
4415 B 0.171595 -23.144710 16.638110 B
4416 B -0.780202 -22.880300 16.372210 B
4417 B -1.082015 -22.602390 15.463850 B
4418 B -1.489670 -22.636800 14.549360 B
4419 B -1.642900 -23.303220 13.876550 B
4420 B -1.063858 -23.907600 14.323370 B
4421 B -0.148856 -24.194440 14.566820 B
4422 A 0.447894 -23.906570 13.883040 A
4423 A 0.197520 -23.684120 12.977180 A
4424 A -0.300611 -23.240380 12.272060 A
4425 A -1.207354 -23.259900 11.946580 A
4426 A -2.016526 -23.447210 11.458550 A
4427 A -2.613880 -22.748520 11.240610 A
4428 A -4.366634 -16.482890 13.317360 A
4429 A -3.859750 -15.637320 13.312310 A
4430 A -3.767727 -14.754580 12.910550 A
4431 A -3.915384 -14.017650 12.324450 A
4432 A -3.995217 -13.473250 11.499340 A
4433 A -4.813061 -12.901800 11.239600 A
4434 B -4.532835 -12.116560 11.765210 B
4435 B -4.334365 -11.607990 12.591410 B
4436 B -4.123219 -11.463760 13.568240 B
4437 B -3.500796 -11.339630 14.321110 B
4438 B -2.746331 -11.527800 14.824890 B
4439 B -2.874876 -12.288960 15.391390 B
4440 B -3.593455 -12.795120 15.803850 B
4441 A -3.722204 -13.544880 16.439340 A
4442 A -4.573630 -13.532330 15.979140 A
4443 A -5.485771 -13.836100 15.894720 A
4444 A -6.355653 -13.560790 16.193800 A
4445 A -6.998563 -13.071520 16.722800 A
4446 A -7.194708 -12.491980 17.542410 A
4447 A -2.080407 -12.321250 -17.663760 A
4448 A -1.788832 -11.456420 -18.123810 A
4449 A -0.932060 -11.306390 -18.514790 A
4450 A -1.355067 -11.189950 -19.354350 A
4451 A -2.161320 -11.659620 -19.625440 A
4452 A -2.667677 -12.250500 -18.973910 A
4453 B -3.294074 -12.021400 -18.349600 B
4454 B -3.112614 -11.601270 -17.490860 B
4455 B -3.943003 -11.923370 -17.022430 B
4456 B -4.251213 -11.932970 -16.081920 B
4457 B -5.122054 -11.337390 -16.355000 B
4458 B -6.134952 -11.238470 -16.488660 B
4459 B -6.736612 -11.764700 -17.005350 B
4460 A -6.585790 -12.653490 -17.408210 A
4461 A -6.091110 -13.071500 -18.098720 A
4462 A -5.333690 -12.904230 -17.659410 A
4463 A -4.761805 -13.037480 -16.921700 A
4464 A -4.088549 -13.615070 -17.171080 A
4465 A -3.792943 -13.797660 -18.053290 A
4466 A -16.285410 -7.259703 18.164610 A
4467 A -15.844070 -7.548952 19.174590 A
4468 A -14.998530 -7.944192 19.567790 A
4469 A -15.203490 -7.055744 19.826030 A
4470 A -14.840580 -7.649607 20.620730 A
4471 A -15.806120 -7.783195 21.163860 A
4472 B -15.128600 -7.589481 21.750350 B
4473 B -14.550200 -8.080087 22.228230 B
4474 B -13.534610 -8.082512 22.539870 B
4475 B -12.698770 -8.591169 22.680680 B
4476 B -12.953630 -8.380964 23.562190 B
4477 B -13.014520 -8.100143 24.483670 B
4478 B -13.737430 -7.486187 24.602540 B
4479 A -14.565540 -7.245212 24.195270 A
4480 A -15.441400 -7.081268 23.869780 A
4481 A -16.290310 -6.688675 23.750100 A
4482 A -17.102990 -6.158672 23.883170 A
4483 A -17.252980 -5.348590 24.362970 A
4484 A -16.882840 -4.887150 -24.847290 A
4485 A -11.571780 -12.622190 -4.978874 A
4486 A -12.086040 -12.638670 -4.180310 A
4487 A -13.030000 -12.817090 -4.211178 A
4488 A -13.857450 -12.879950 -3.741554 A
4489 A -14.339560 -13.558160 -3.302693 A
4490 A -14.265830 -14.265300 -2.676720 A
4491 B -14.003480 -14.573180 -1.774260 B
4492 B -13.667430 -14.436610 -0.894727 B
4493 B -14.111090 -13.633310 -0.582250 B
4494 B -14.678920 -13.126890 0.013073 B
4495 B -15.142720 -12.984240 0.859509 B
4496 B -15.322100 -12.031530 0.942996 B
4497 B -15.028510 -11.190500 1.329069 B
4498 A -15.194820 -10.427020 1.858747 A
4499 A -14.785620 -10.279980 2.735695 A
4500 A -15.038330 -11.071230 3.289852 A
4501 A -15.974520 -11.351400 3.190985 A
4502 A -16.560380 -11.753440 2.554931 A
4503 A -16.811400 -12.042620 1.668313 A
4504 A 18.278460 -9.729795 -23.637710 A
4505 A 19.055170 -10.336880 -23.768060 A
4506 A 19.237180 -11.175620 -24.187930 A
4507 A 19.522650 -11.953930 -24.597060 A
4508 A 19.585880 -12.795260 24.814450 A
4509 A 19.409140 -13.614710 24.281680 A
4510 B 18.534490 -13.621530 23.844650 B
4511 B 17.600230 -13.415340 23.737280 B
4512 B 17.998700 -12.683660 23.158470 B
4513 B 18.719440 -12.888930 22.586190 B
4514 B 18.926330 -13.771070 22.196320 B
4515 B 18.181650 -14.151110 21.688520 B
4516 B 17.422980 -14.057830 21.169990 B
4517 A 16.666880 -14.098620 20.617180 A
4518 A 15.839250 -14.256670 20.280180 A
4519 A 15.305790 -14.909810 20.694250 A
4520 A 15.506300 -15.188020 21.572400 A
4521 A 15.457370 -16.140010 21.442780 A
4522 A 15.884370 -16.981030 21.110730 A
4523 A 13.535690 -6.812418 -20.644660 A
4524 A 13.234940 -6.039520 -20.040100 A
4525 A 13.212050 -5.232435 -19.498710 A
4526 A 13.599820 -4.559174 -18.988130 A
4527 A 12.930340 -3.881394 -19.118980 A
4528 A 13.396600 -3.228399 -19.585320 A
4529 B 13.523970 -2.688432 -20.407390 B
4530 B 12.760410 -2.701907 -20.958960 B
4531 B 11.981640 -2.311287 -20.629760 B
4532 B 12.318310 -1.527295 -20.126390 B
4533 B 12.637550 -1.870439 -19.245710 B
4534 B 13.510580 -1.820005 -18.987590 B
4535 B 14.350550 -1.835926 -19.403250 B
4536 A 14.739360 -1.866926 -20.273250 A
4537 A 15.115410 -1.467661 -21.090390 A
4538 A 15.998730 -1.363154 -21.490460 A
4539 A 16.734490 -0.877862 -20.987340 A
4540 A 17.268900 -0.394693 -20.364030 A
4541 A 17.706440 0.050039 -19.694990 A
4542 A -3.971637 0.723117 18.502080 A
4543 A -3.351339 0.833329 17.787670 A
4544 A -3.027049 0.915560 16.860100 A
4545 A -3.160442 0.504102 15.995480 A
4546 A -3.696260 0.247596 15.219060 A
4547 A -4.412851 0.731091 14.797940 A
4548 B -4.951493 1.141585 14.144210 B
4549 B -5.087626 0.372419 13.596590 B
4550 B -5.305578 -0.551861 13.706310 B
4551 B -4.799870 -1.203313 14.252400 B
4552 B -3.987518 -1.694704 14.265980 B
4553 B -3.674196 -2.595059 14.329800 B
4554 B -3.188226 -2.268579 13.568670 B
4555 A -3.008990 -2.138842 12.603440 A
4556 A -2.224837 -2.472488 12.158260 A
4557 A -1.667192 -3.219838 12.357900 A
4558 A -1.099481 -3.903483 12.611520 A
4559 A -0.129647 -3.847127 12.660030 A
4560 A 0.693609 -3.408129 12.908720 A
4561 A 13.363800 -6.341702 13.807780 A
4562 A 13.572860 -7.111410 14.406690 A
4563 A 13.895050 -7.187024 15.318990 A
4564 A 13.469050 -6.533984 15.866470 A
4565 A 13.072220 -5.857683 16.344720 A
4566 A 12.457880 -5.178512 16.667370 A
4567 B 11.562670 -4.870816 16.492730 B
4568 B 10.760160 -5.411854 16.574330 B
4569 B 10.393150 -6.264918 16.747390 B
4570 B 9.680284 -6.832673 17.231060 B
4571 B 8.922278 -6.982728 17.825540 B
4572 B 7.992992 -7.195111 18.014710 B
4573 B 7.477989 -6.376768 18.089250 B
4574 A 7.897709 -5.531240 18.180640 A
4575 A 7.916831 -4.578829 18.194570 A
4576 A 7.611712 -4.109138 17.412310 A
4577 A 7.399611 -4.056900 16.444380 A
4578 A 7.522802 -3.880253 15.518910 A
4579 A 8.275295 -3.708878 14.973120 A
4580 A 14.167680 6.272818 16.856900 A
4581 A 13.873640 5.683122 17.531630 A
4582 A 13.426200 5.008437 16.908590 A
4583 A 13.653460 4.115151 16.453420 A
4584 A 14.290010 3.481462 16.081680 A
4585 A 14.902040 3.621914 15.453990 A
4586 B 15.432530 4.237096 14.877660 B
4587 B 16.161560 4.837024 14.804600 B
4588 B 16.586320 5.194217 15.708610 B
4589 B 17.258190 5.107971 16.302090 B
4590 B 17.138470 4.117797 15.970600 B
4591 B 16.699580 3.616427 16.752420 B
4592 B 15.820290 3.263681 17.038300 B
4593 A 14.889040 3.877374 16.992390 A
4594 A 14.757160 4.430604 17.728000 A
4595 A 15.354730 3.874891 18.251290 A
4596 A 15.185200 2.968382 17.956790 A
4597 A 14.550280 2.318849 17.487550 A
4598 A 14.755130 1.569646 16.875840 A
4599 A 7.884572 18.762250 7.983063 A
4600 A 7.522870 17.884760 7.972610 A
4601 A 6.898018 17.185050 7.639841 A
4602 A 6.313701 17.436670 6.752745 A
4603 A 5.591558 18.031490 6.934916 A
4604 A 5.950747 18.857180 6.906532 A
4605 B 5.976043 18.884340 5.979917 B
4606 B 6.104906 19.787340 5.746995 B
4607 B 6.622365 20.474050 5.062232 B
4608 B 7.458508 19.884460 5.175654 B
4609 B 7.193786 19.035340 4.646418 B
4610 B 7.814681 18.374320 4.686985 B
4611 B 8.085155 17.844230 3.970951 B
4612 A 8.795202 17.605760 4.549636 A
4613 A 8.976701 16.596830 4.732621 A
4614 A 8.483868 16.394470 5.544314 A
4615 A 8.777082 16.479930 6.467117 A
4616 A 8.853559 16.470750 7.416765 A
4617 A 9.405645 16.821890 8.110431 A
4618 A 15.782790 15.049000 -0.033383 A
4619 A 15.083490 15.600340 -0.236788 A
4620 A 14.650180 16.359770 -0.616449 A
4621 A 13.834780 16.855200 -0.572920 A
4622 A 12.990460 17.281880 -0.593963 A
4623 A 12.389710 17.815330 -0.094925 A
4624 B 12.218960 17.775150 0.882973 B
4625 B 12.594180 17.286310 1.649547 B
4626 B 13.433010 17.803890 1.627608 B
4627 B 13.882730 18.502220 1.155840 B
4628 B 14.271830 18.601170 0.256014 B
4629 B 14.701960 19.224390 -0.405742 B
4630 B 14.994150 20.156780 -0.258591 B
4631 A 15.736500 20.756140 -0.377679 A
4632 A 16.249790 21.566220 -0.458284 A
4633 A 16.705680 22.371560 -0.457545 A
4634 A 16.571980 23.251520 0.004344 A
4635 A 16.425420 23.927060 0.713416 A
4636 A 16.706720 24.395810 1.531889 A
4637 A -19.378110 -5.082682 -19.663960 A
4638 A -19.415890 -4.144136 -19.497670 A
4639 A -19.592710 -3.237426 -19.183990 A
4640 A -20.438490 -2.763576 -19.355650 A
4641 A -21.268600 -3.239199 -19.522890 A
4642 A -21.221660 -4.172979 -19.277400 A
4643 B -20.509700 -4.452022 -18.726330 B
4644 B -19.715150 -4.175591 -18.296330 B
4645 B -18.908280 -4.318563 -17.741940 B
4646 B -19.434730 -5.118103 -17.708760 B
4647 B -19.988260 -5.751947 -18.148560 B
4648 B -20.637030 -6.467010 -18.158650 B
4649 B -21.180720 -7.014472 -17.559010 B
4650 A -21.517540 -7.294218 -16.717060 A
4651 A -21.928170 -7.419446 -15.859670 A
4652 A -21.824390 -7.643283 -14.953200 A
4653 A -21.082860 -7.935805 -14.415930 A
4654 A -20.689500 -8.034799 -13.553240 A
4655 A -20.487190 -7.459507 -12.796550 A
4656 A 0.328055 15.099570 -10.086040 A
4657 A 0.958110 15.552880 -10.766440 A
4658 A 1.743094 15.202690 -11.213660 A
4659 A 1.149515 14.500750 -11.018200 A
4660 A 1.535484 14.015850 -11.743330 A
4661 A 1.630770 14.650140 -12.412730 A
4662 B 1.379171 15.157710 -13.122180 B
4663 B 1.140481 14.788950 -13.953450 B
4664 B 0.935901 13.906830 -14.213170 B
4665 B 1.291271 13.123060 -13.893420 B
4666 B 1.723702 12.260290 -13.873860 B
4667 B 2.667602 12.162350 -13.749410 B
4668 B 3.563941 12.127310 -14.043440 B
4669 A 3.201801 11.970180 -14.943670 A
4670 A 2.439883 11.397080 -15.176460 A
4671 A 1.683104 11.011690 -14.817700 A
4672 A 1.023031 10.596670 -14.310110 A
4673 A 0.512779 9.973746 -13.811950 A
4674 A -0.170558 9.448049 -13.337710 A
4675 A -13.901050 24.617490 -15.398660 A
4676 A -14.430720 23.816530 -15.177710 A
4677 A -14.793520 23.207280 -14.572490 A
4678 A -14.372110 22.925630 -13.772400 A
4679 A -13.968300 22.550710 -13.010780 A
4680 A -13.145860 22.295370 -12.643410 A
4681 B -12.318780 22.185900 -13.148680 B
4682 B -11.993520 22.162040 -14.016510 B
4683 B -11.372280 22.357730 -14.741250 B
4684 B -10.482720 22.322810 -15.185570 B
4685 B -10.521050 21.719590 -14.417390 B
4686 B -11.122600 21.752680 -13.605390 B
4687 B -11.676120 20.981050 -13.352160 B
4688 A -12.519160 20.745450 -13.825080 A
4689 A -12.988370 21.355470 -14.452590 A
4690 A -13.051450 22.129870 -14.975610 A
4691 A -12.834610 22.994360 -14.683060 A
4692 A -12.508000 23.806490 -14.270220 A
4693 A -11.707570 23.310640 -14.015780 A
4694 A 24.315560 7.305434 -16.044180 A
4695 A 24.486530 6.521502 -15.500160 A
4696 A 23.934840 6.178147 -14.803640 A
4697 A 23.365730 5.902448 -14.068110 A
4698 A 23.106520 6.354317 -13.221060 A
4699 A 22.583820 6.182403 -12.420150 A
4700 B 22.606190 5.465988 -11.780880 B
4701 B 23.358670 4.834864 -11.646570 B
4702 B 23.940610 4.025609 -11.711700 B
4703 B 23.323300 3.293753 -11.882390 B
4704 B 22.394650 3.006183 -12.114120 B
4705 B 21.488140 2.710889 -11.853660 B
4706 B 20.730720 2.483550 -11.332090 B
4707 A 20.249610 3.091938 -10.792690 A
4708 A 20.566500 4.013316 -10.697550 A
4709 A 21.218480 4.739345 -10.637110 A
4710 A 21.878540 5.106821 -10.014190 A
4711 A 22.591150 5.717979 -9.749167 A
4712 A 23.480890 5.914982 -9.409888 A
4713 A -5.164361 -7.015999 -11.487930 A
4714 A -5.287203 -7.680172 -10.846940 A
4715 A -4.395574 -8.031962 -10.681580 A
4716 A -3.757276 -8.628104 -11.043060 A
4717 A -3.065171 -9.265258 -11.234690 A
4718 A -2.147502 -8.967715 -11.084360 A
4719 B -1.597331 -8.255890 -10.888370 B
4720 B -1.751442 -7.395630 -10.421470 B
4721 B -2.012916 -6.455036 -10.203340 B
4722 B -1.062721 -6.356789 -10.119500 B
4723 B -0.309204 -6.644085 -10.633920 B
4724 B -0.105093 -7.081417 -11.449760 B
4725 B -0.055978 -7.590099 -12.264220 B
4726 A 0.248505 -8.331818 -11.798790 A
4727 A 0.457604 -9.133099 -11.277010 A
4728 A 0.328020 -9.764740 -10.544730 A
4729 A 0.017707 -9.643238 -9.624742 A
4730 A -0.768931 -9.198158 -9.281430 A
4731 A -1.231500 -8.360731 -9.208429 A
4732 A 19.704990 -17.831380 -19.536260 A
4733 A 20.321070 -17.754240 -18.809030 A
4734 A 20.912980 -17.222060 -18.219130 A
4735 A 21.193210 -16.313960 -18.039730 A
4736 A 21.435740 -15.373390 -17.917790 A
4737 A 21.493090 -14.450820 -18.193520 A
4738 B 21.804370 -13.589680 -18.417000 B
4739 B 22.742630 -13.478960 -18.652930 B
4740 B 23.498820 -13.845600 -19.085370 B
4741 B 23.016930 -14.519170 -19.606510 B
4742 B 22.546850 -15.150490 -20.160000 B
4743 B 21.961770 -15.694560 -20.662140 B
4744 B 21.042850 -16.009400 -20.553440 B
4745 A 20.383960 -15.356640 -20.551740 A
4746 A 20.773680 -14.506100 -20.695080 A
4747 A 21.111210 -13.638630 -20.696970 A
4748 A 21.257290 -12.765910 -21.037400 A
4749 A 21.230020 -12.051110 -21.695430 A
4750 A 21.394520 -11.356930 -22.318410 A
4751 A -23.060020 8.889361 18.741910 A
4752 A -22.768020 9.651318 19.274520 A
4753 A -22.617570 9.916844 20.159770 A
4754 A -22.481630 10.273010 21.008730 A
4755 A -22.479820 9.979688 21.892110 A
4756 A -21.541790 10.014670 21.922600 A
4757 B -20.682140 10.107470 21.374030 B
4758 B -20.296070 10.168440 20.517640 B
4759 B -19.956990 9.881634 19.682100 B
4760 B -19.432210 9.066062 19.775360 B
4761 B -19.639470 8.275116 20.210010 B
4762 B -19.550840 7.537747 20.827380 B
4763 B -19.742020 6.633152 20.856560 B
4764 A -20.251610 6.648488 20.016520 A
4765 A -20.754090 6.886596 19.226730 A
4766 A -20.628180 7.561076 18.577810 A
4767 A -20.610050 8.073253 17.725160 A
4768 A -20.889430 8.778890 17.165630 A
4769 A -21.817290 9.029998 16.984740 A
4770 A 22.401290 5.441431 1.978047 A
4771 A 22.181840 4.561502 2.304426 A
4772 A 21.547350 4.089705 2.839152 A
4773 A 20.582370 4.082096 3.036165 A
4774 A 19.775260 4.495810 3.339350 A
4775 A 18.854710 4.871351 3.466955 A
4776 B 18.179710 5.258934 2.877737 B
4777 B 17.606670 5.675882 2.280498 B
4778 B 16.927770 5.612347 1.623352 B
4779 B 16.629350 5.852073 0.707371 B
4780 B 17.334860 6.424055 0.363075 B
4781 B 18.223790 6.102465 0.244546 B
4782 B 19.180280 6.043135 -0.051447 B
4783 A 19.763350 5.364220 0.358788 A
4784 A 20.247400 5.106379 -0.428647 A
4785 A 19.848530 4.920046 -1.328476 A
4786 A 19.096570 4.390887 -0.976866 A
4787 A 18.368230 3.845278 -0.588474 A
4788 A 18.037320 3.141185 0.098600 A
4789 A 11.367320 -5.545554 5.563120 A
4790 A 11.130790 -4.990774 6.280980 A
4791 A 10.759180 -4.577334 7.071366 A
4792 A 10.036090 -4.266727 7.615048 A
4793 A 9.354330 -4.837544 7.277213 A
4794 A 9.518952 -5.693739 7.644018 A
4795 B 10.021270 -6.235919 8.228219 B
4796 B 10.905870 -6.229321 8.627913 B
4797 B 11.598440 -5.534435 8.621852 B
4798 B 12.121120 -4.793347 8.331502 B
4799 B 11.721480 -4.026310 7.942101 B
4800 B 11.335610 -3.157527 7.986201 B
4801 B 10.820390 -2.591259 8.568134 B
4802 A 10.458100 -2.550261 9.481380 A
4803 A 10.537010 -2.923674 10.375650 A
4804 A 10.392840 -3.474373 11.137560 A
4805 A 10.584530 -4.029567 11.872130 A
4806 A 10.795320 -4.709073 12.517020 A
4807 A 10.533570 -5.299531 13.205830 A
4808 A 10.849680 3.839145 -7.955110 A
4809 A 11.410140 4.277615 -8.611595 A
4810 A 11.905590 4.867866 -7.990092 A
4811 A 11.361210 5.515412 -8.328240 A
4812 A 10.859470 5.962032 -9.000453 A
4813 A 10.770310 5.254124 -9.668693 A
4814 B 10.848200 4.637559 -10.334110 B
4815 B 11.743530 4.396365 -10.554600 B
4816 B 12.504240 4.333749 -9.938776 B
4817 B 13.022540 5.143309 -9.902360 B
4818 B 12.500690 5.874313 -9.638757 B
4819 B 12.215450 6.792257 -9.743872 B
4820 B 11.879450 7.662983 -9.979813 B
4821 A 12.714300 7.899933 -9.635918 A
4822 A 13.281560 7.081219 -9.710245 A
4823 A 13.927070 6.701046 -9.033989 A
4824 A 14.560930 6.507858 -8.268583 A
4825 A 15.254590 6.529523 -7.621586 A
4826 A 15.826710 6.157134 -6.933366 A
4827 A 10.455980 -3.820667 -13.130490 A
4828 A 11.039560 -3.138209 -12.815910 A
4829 A 11.930950 -3.095463 -12.455360 A
4830 A 12.362490 -3.749248 -11.832170 A
4831 A 12.509320 -4.250111 -10.999990 A
4832 A 12.872590 -5.098524 -10.787670 A
4833 B 12.979190 -6.052933 -10.676920 B
4834 B 13.449760 -6.863070 -10.943840 B
4835 B 14.258840 -7.244735 -11.198230 B
4836 B 15.134020 -7.520751 -10.890710 B
4837 B 14.832490 -7.778148 -9.992179 B
4838 B 14.502020 -7.911907 -9.103406 B
4839 B 14.442840 -7.970923 -8.116592 B
4840 A 15.201010 -8.346709 -7.703021 A
4841 A 16.067310 -8.092515 -7.976838 A
4842 A 16.836460 -8.073097 -8.540737 A
4843 A 17.442780 -8.126405 -9.258858 A
4844 A 18.113300 -8.753846 -8.974771 A
4845 A 18.583370 -9.462387 -8.511663 A
4846 A -0.177753 2.606115 5.542485 A
4847 A 0.502699 2.670089 6.206378 A
4848 A 0.089573 3.156018 6.962687 A
4849 A -0.614368 3.425376 6.521041 A
4850 A -1.417076 3.137390 6.113157 A
4851 A -2.190725 2.702560 5.751369 A
4852 B -2.417417 1.910891 5.252472 B
4853 B -2.935384 1.471363 6.047837 B
4854 B -3.705722 1.224049 6.498755 B
4855 B -4.273814 1.003706 7.204024 B
4856 B -4.932408 1.182854 7.843190 B
4857 B -4.508242 1.960348 8.095424 B
4858 B -4.351745 2.917717 8.096678 B
4859 A -4.044361 3.541859 8.670944 A
4860 A -3.258423 3.510136 9.063981 A
4861 A -2.794075 3.714094 9.842762 A
4862 A -2.188482 3.033453 10.150510 A
4863 A -2.671929 2.343536 9.695072 A
4864 A -2.977467 1.705363 8.971134 A
4865 A 14.689620 -3.148385 7.928068 A
4866 A 15.286830 -2.813012 7.243889 A
4867 A 15.323180 -1.858902 7.286876 A
4868 A 15.000000 -1.332205 8.057120 A
4869 A 14.633730 -1.085517 8.941002 A
4870 A 14.015480 -0.399372 8.748199 A
4871 B 13.160170 -0.343795 9.074690 B
4872 B 12.667890 0.299433 9.548070 B
4873 B 12.154670 0.597905 10.317820 B
4874 B 12.766310 1.136079 10.833460 B
4875 B 13.374720 1.496422 11.474350 B
4876 B 14.060470 1.069440 12.029510 B
4877 B 14.641030 0.352315 12.283970 B
4878 A 14.680320 -0.517866 11.872890 A
4879 A 14.527730 -0.752237 10.921260 A
4880 A 14.125970 -0.690814 10.047150 A
4881 A 14.558340 0.115528 9.683496 A
4882 A 15.133110 0.875984 9.496150 A
4883 A 15.668630 1.266870 8.834880 A
4884 A 9.700456 20.273530 3.229869 A
4885 A 9.399003 20.236830 4.164845 A
4886 A 10.155430 19.939440 4.641940 A
4887 A 11.012470 19.683360 4.900646 A
4888 A 10.724770 19.203950 4.101496 A
4889 A 10.413770 18.466810 3.493311 A
4890 B 9.919289 17.668630 3.411288 B
4891 B 10.415330 17.470220 2.618657 B
4892 B 11.018190 17.563170 1.873822 B
4893 B 11.094880 18.500980 1.520071 B
4894 B 10.677290 19.330950 1.338261 B
4895 B 10.045310 19.837940 0.822955 B
4896 B 9.875413 20.298600 0.033166 B
4897 A 9.288764 20.679860 -0.614768 A
4898 A 8.929289 21.159690 -1.337972 A
4899 A 8.377120 21.328800 -2.036021 A
4900 A 8.494843 20.407390 -2.407530 A
4901 A 9.421994 20.603110 -2.403940 A
4902 A 10.123830 20.537970 -1.747208 A
4903 A 12.027750 1.516381 -14.778330 A
4904 A 11.128790 1.100816 -14.834570 A
4905 A 10.333370 0.923536 -14.268030 A
4906 A 9.656854 1.280247 -13.756180 A
4907 A 8.690187 1.529553 -13.908790 A
4908 A 8.048397 1.551177 -14.718770 A
4909 B 7.697176 1.948687 -15.500410 B
4910 B 7.133898 1.460271 -16.083480 B
4911 B 7.109459 2.026046 -16.891340 B
4912 B 7.788469 2.273638 -17.585360 B
4913 B 7.907544 1.749306 -18.462610 B
4914 B 8.785364 1.572279 -18.116520 B
4915 B 9.355665 1.160610 -17.431950 B
4916 A 9.694770 1.178369 -16.542800 A
4917 A 10.439100 1.452976 -16.064640 A
4918 A 10.879000 2.294604 -15.781150 A
4919 A 11.344310 3.099038 -15.934390 A
4920 A 11.417490 3.562626 -16.747690 A
4921 A 11.499940 4.183245 -17.465040 A
4922 A 18.142720 18.239350 2.712850 A
4923 A 18.642740 17.690910 2.054380 A
4924 A 18.601970 17.866220 1.100572 A
4925 A 18.736470 17.559150 0.175612 A
4926 A 18.431690 16.993830 -0.509324 A
4927 A 18.481500 16.070300 -0.225184 A
4928 B 18.173850 15.147590 0.034853 B
4929 B 17.677350 15.186400 -0.772839 B
4930 B 17.716760 15.097390 -1.717879 B
4931 B 18.463390 15.551150 -2.280430 B
4932 B 19.161100 16.206730 -2.234336 B
4933 B 19.512450 16.054420 -1.398056 B
4934 B 19.876300 16.014070 -0.488634 B
4935 A 19.948120 15.651310 0.419944 A
4936 A 19.835110 14.775010 0.782913 A
4937 A 18.981640 14.361940 0.944593 A
4938 A 18.187730 14.094500 0.493558 A
4939 A 17.944810 14.023310 -0.409384 A
4940 A 17.723630 13.543390 -1.220757 A
4941 A 12.943830 22.960620 2.673395 A
4942 A 13.696260 23.612700 2.350144 A
4943 A 14.148010 23.707780 1.488173 A
4944 A 14.994310 24.170550 1.442026 A
4945 A 15.209640 24.876970 2.046425 A
4946 A 14.745360 -24.920650 2.885093 A
4947 B 14.510200 24.416600 3.615327 B
4948 B 14.166430 23.785320 4.216355 B
4949 B 14.205000 22.853780 4.444732 B
4950 B 14.383210 21.896190 4.439254 B
4951 B 14.606050 21.059630 4.010866 B
4952 B 15.154400 20.878940 3.249541 B
4953 B 15.802380 20.761200 2.594721 B
4954 A 16.395560 20.260980 2.033644 A
4955 A 17.223290 20.093050 1.571998 A
4956 A 18.169780 20.212800 1.502060 A
4957 A 18.603250 20.858230 2.068800 A
4958 A 18.118480 20.771640 2.898102 A
4959 A 17.558330 21.521950 2.828388 A
4960 A -6.159653 -16.190070 -2.419276 A
4961 A -6.842123 -15.498830 -2.281072 A
4962 A -7.283102 -14.623900 -2.397755 A
4963 A -7.513712 -13.681890 -2.230988 A
4964 A -7.889702 -12.908320 -1.736791 A
4965 A -7.943500 -12.602250 -0.834589 A
4966 B -8.686497 -12.808520 -0.259078 B
4967 B -9.030396 -13.608610 0.140927 B
4968 B -8.695281 -14.456820 0.448087 B
4969 B -8.041673 -15.160590 0.620393 B
4970 B -7.397120 -15.863090 0.782640 B
4971 B -6.807379 -16.608380 0.867738 B
4972 B -6.038308 -17.101690 1.256941 B
4973 A -5.607411 -16.233800 0.994656 A
4974 A -5.737820 -15.597130 1.677504 A
4975 A -5.665674 -15.110570 2.545130 A
4976 A -5.902277 -14.983510 3.508805 A
4977 A -6.153332 -15.500620 4.315253 A
4978 A -6.819234 -15.891430 4.869130 A
4979 A 2.306575 0.026909 -4.045943 A
4980 A 1.479547 -0.163006 -4.562928 A
4981 A 1.277100 -1.092223 -4.571186 A
4982 A 0.533005 -1.472741 -4.994878 A
4983 A 0.481677 -1.625609 -4.031862 A
4984 A 0.000113 -1.164918 -3.256568 A
4985 B -0.213380 -1.340056 -2.387872 B
4986 B -0.790355 -1.978656 -2.918388 B
4987 B -1.580713 -2.420711 -3.081244 B
4988 B -1.856263 -3.321595 -3.077352 B
4989 B -2.023136 -3.655556 -3.949183 B
4990 B -1.451085 -4.356781 -3.605973 B
4991 B -0.952233 -3.971375 -2.900733 B
4992 A -0.211059 -3.405414 -2.643167 A
4993 A 0.261328 -3.265320 -1.857189 A
4994 A 1.052929 -3.415468 -1.385671 A
4995 A 1.812048 -3.934736 -1.741716 A
4996 A 1.804397 -4.861437 -1.935378 A
4997 A 1.982428 -5.641579 -2.369486 A
4998 A 12.385230 18.812120 -22.993980 A
4999 A 11.815800 18.146500 -23.312050 A
5000 A 11.469750 17.299920 -23.679000 A
5001 A 11.183010 16.787620 -24.427390 A
5002 A 10.896240 16.025170 24.923390 A
5003 A 11.063670 15.216100 24.431980 A
5004 B 10.961640 14.358480 23.993410 B
5005 B 10.862010 13.432820 23.824210 B
5006 B 9.915560 13.701810 23.879340 B
5007 B 9.243605 14.250470 24.258770 B
5008 B 8.349575 14.610510 24.489190 B
5009 B 7.408730 14.822690 24.518600 B
5010 B 7.034438 14.330250 -24.691910 B
5011 A 7.731629 13.824610 -24.175060 A
5012 A 8.668202 13.732650 -23.942510 A
5013 A 9.027561 13.684560 -23.009690 A
5014 A 8.795774 14.031650 -22.106870 A
5015 A 8.107045 14.086700 -21.432460 A
5016 A 7.723609 13.450210 -20.798020 A
5017 A -0.037373 9.154170 -17.075390 A
5018 A -0.347165 9.841880 -16.447830 A
5019 A -0.397939 10.705460 -16.137830 A
5020 A -0.735568 11.714960 -15.988860 A
5021 A -0.051067 11.913990 -16.569710 A
5022 A 0.489490 12.489420 -17.212320 A
5023 B 0.196952 13.143700 -17.896970 B
5024 B 0.574372 12.385610 -18.225070 B
5025 B 1.348471 11.811570 -17.968270 B
5026 B 2.047920 11.285160 -17.487760 B
5027 B 2.239844 10.382050 -17.462200 B
5028 B 2.281010 10.466440 -16.491310 B
5029 B 1.595129 10.905960 -15.971280 B
5030 A 1.570120 11.901850 -15.843440 A
5031 A 0.981976 12.220880 -15.144010 A
5032 A 0.239959 11.785060 -14.621040 A
5033 A -0.558339 12.268890 -14.751470 A
5034 A -1.531621 12.255110 -15.028900 A
5035 A -1.981073 12.163620 -15.827220 A
5036 A 6.937154 -16.572940 17.847430 A
5037 A 6.334486 -17.305230 17.560550 A
5038 A 6.458133 -18.076720 17.067620 A
5039 A 6.490843 -18.412730 16.170740 A
5040 A 6.201288 -18.185900 15.296000 A
5041 A 5.493307 -17.806040 14.814930 A
5042 B 4.553893 -17.577090 14.598910 B
5043 B 3.644544 -17.684850 14.381210 B
5044 B 3.625754 -17.171200 15.121880 B
5045 B 4.125196 -16.574580 15.650770 B
5046 B 4.795117 -16.042590 16.199100 B
5047 B 4.805181 -15.495200 17.036800 B
5048 B 5.309650 -15.475930 17.844890 B
5049 A 5.382682 -15.995760 18.639800 A
5050 A 5.098633 -16.894020 18.375930 A
5051 A 5.213665 -17.558890 17.728000 A
5052 A 5.001477 -18.520390 17.545920 A
5053 A 5.296555 -19.273750 18.103550 A
5054 A 6.065257 -19.490760 18.595090 A
5055 A 11.120320 12.049710 -4.960797 A
5056 A 11.653230 12.841150 -5.066438 A
5057 A 11.541030 13.789640 -5.293528 A
5058 A 11.422390 14.574890 -5.864247 A
5059 A 10.604110 14.995470 -6.120642 A
5060 A 9.818480 15.323580 -6.590251 A
5061 B 8.968858 15.025660 -6.857746 B
5062 B 8.326941 14.314660 -6.984998 B
5063 B 8.262907 13.376970 -6.718809 B
5064 B 7.922674 12.504630 -6.864348 B
5065 B 7.845614 11.740380 -6.305501 B
5066 B 7.279516 11.170890 -5.782141 B
5067 B 6.416186 11.133980 -6.297441 B
5068 A 5.680281 11.671350 -6.663247 A
5069 A 5.216335 12.162320 -7.352391 A
5070 A 5.079550 12.386000 -8.269488 A
5071 A 5.186563 13.030360 -8.983589 A
5072 A 4.927241 13.943420 -8.937626 A
5073 A 4.498303 14.807430 -8.557260 A
5074 A -11.379710 -1.435246 15.656870 A
5075 A -11.789260 -2.202718 15.241870 A
5076 A -12.722420 -2.462087 15.153840 A
5077 A -12.945510 -3.299834 15.566740 A
5078 A -12.740400 -4.015343 16.155770 A
5079 A -13.153930 -4.661900 16.742230 A
5080 B -13.617970 -5.402475 17.119270 B
5081 B -13.865020 -6.021396 16.431870 B
5082 B -13.982280 -5.491211 15.636570 B
5083 B -14.407420 -4.646882 15.515890 B
5084 B -14.646930 -3.725122 15.676360 B
5085 B -14.688140 -2.752481 15.535830 B
5086 B -14.844280 -2.891168 14.599780 B
5087 A -14.073810 -3.087196 14.043470 A
5088 A -13.808050 -3.662549 13.349090 A
5089 A -14.155960 -3.725197 12.433240 A
5090 A -14.840620 -3.694908 11.710040 A
5091 A -15.611290 -3.406394 11.117670 A
5092 A -16.173310 -2.552211 10.879000 A
5093 A -16.518800 -14.490760 24.906810 A
5094 A -16.438680 -15.441770 -24.552970 A
5095 A -16.532370 -16.305340 -24.150310 A
5096 A -15.773280 -16.930750 -24.080520 A
5097 A -15.263120 -17.273820 -23.340050 A
5098 A -15.122080 -17.913170 -22.592930 A
5099 B -15.462400 -18.512970 -23.319350 B
5100 B -15.391250 -18.488500 -24.253270 B
5101 B -15.729160 -18.291300 24.816100 B
5102 B -16.288110 -17.709100 24.371320 B
5103 B -17.014610 -17.195800 24.597860 B
5104 B -17.685520 -17.302020 -24.625170 B
5105 B -18.079280 -17.377940 -23.771540 B
5106 A -18.563750 -17.766050 -23.078970 A
5107 A -17.888800 -18.004130 -22.398730 A
5108 A -17.070430 -18.068800 -21.906330 A
5109 A -16.347040 -18.667810 -21.799540 A
5110 A -15.508460 -19.112470 -21.548520 A
5111 A -14.988400 -19.832160 -21.952050 A
5112 A -13.871000 2.667841 13.447070 A
5113 A -13.951210 1.828566 12.984520 A
5114 A -14.014260 1.175585 12.260440 A
5115 A -13.387580 1.231151 11.536940 A
5116 A -12.889050 1.175942 10.677600 A
5117 A -12.399530 1.438571 9.874467 A
5118 B -11.846750 2.044065 9.353255 B
5119 B -11.658720 2.718768 8.684752 B
5120 B -12.132400 3.210114 9.368263 B
5121 B -12.966620 2.786623 9.598461 B
5122 B -13.891150 2.874554 9.300985 B
5123 B -14.783530 2.624222 8.944398 B
5124 B -15.236090 1.886324 9.414811 B
5125 A -15.677050 1.946177 10.258250 A
5126 A -16.203770 2.216728 11.000020 A
5127 A -15.931310 2.686773 11.823450 A
5128 A -15.541360 3.234989 12.483110 A
5129 A -15.836500 3.996217 12.996310 A
5130 A -16.501030 4.443439 13.598810 A
5131 A 12.943400 -23.778840 -5.153251 A
5132 A 12.229820 -23.133230 -5.292590 A
5133 A 11.755890 -22.356460 -5.519008 A
5134 A 11.001790 -22.276570 -4.887417 A
5135 A 10.873630 -22.523840 -3.913373 A
5136 A 10.279900 -23.045230 -4.475479 A
5137 B 10.268800 -23.977460 -4.848395 B
5138 B 10.453840 -24.673410 -4.198114 B
5139 B 9.933662 24.534250 -3.832753 B
5140 B 9.495870 24.218310 -4.649246 B
5141 B 9.029260 24.621370 -5.372632 B
5142 B 8.860137 24.674310 -6.311825 B
5143 B 9.279754 23.868160 -6.601868 B
5144 A 9.462448 22.972000 -6.206490 A
5145 A 9.706892 22.418750 -5.436011 A
5146 A 10.406670 21.841000 -5.165674 A
5147 A 10.953830 21.397290 -4.534117 A
5148 A 11.369240 20.577110 -4.202672 A
5149 A 11.321560 19.683460 -3.829640 A
5150 A 12.433320 15.987120 -9.523886 A
5151 A 12.720960 15.146640 -9.918303 A
5152 A 12.978070 14.338490 -10.370200 A
5153 A 13.849410 14.567830 -10.621930 A
5154 A 14.721280 14.596320 -11.127070 A
5155 A 15.460230 14.978100 -11.592910 A
5156 B 15.744710 15.044320 -12.496020 B
5157 B 15.968080 14.760520 -13.441600 B
5158 B 15.439330 14.359370 -14.094280 B
5159 B 15.015510 13.685340 -14.663890 B
5160 B 15.268940 12.884010 -14.261770 B
5161 B 15.983470 12.217440 -14.128210 B
5162 B 16.819490 12.600430 -14.501220 B
5163 A 16.966840 13.508440 -14.862210 A
5164 A 16.244950 14.073110 -15.102770 A
5165 A 15.542830 14.743460 -15.186660 A
5166 A 14.812950 15.247440 -15.644140 A
5167 A 14.009010 15.375790 -15.106910 A
5168 A 13.855560 15.547620 -14.143650 A
5169 A -21.401640 -8.304605 -20.086860 A
5170 A -21.699470 -8.635374 -19.232570 A
5171 A -22.212390 -8.898452 -18.462970 A
5172 A -22.675140 -9.150922 -17.644230 A
5173 A -23.129820 -9.605765 -16.954060 A
5174 A -23.349280 -9.040466 -16.199560 A
5175 B -23.522180 -8.097795 -16.350800 B
5176 B -23.375070 -7.188575 -16.650780 B
5177 B -23.660090 -6.371128 -17.119640 B
5178 B -24.117060 -5.659443 -17.568360 B
5179 B -24.720730 -5.540802 -18.279370 B
5180 B 24.919940 -5.972304 -19.101540 B
5181 B -24.930680 -6.076184 -20.045760 B
5182 A -24.467370 -6.139644 -20.893980 A
5183 A -23.816720 -6.789644 -21.140620 A
5184 A -23.046820 -7.366372 -20.935210 A
5185 A -23.090110 -7.813450 -20.085670 A
5186 A -23.425470 -7.968997 -19.206830 A
5187 A -23.415600 -8.894006 -19.507420 A
5188 A 18.667740 -16.530190 24.349130 A
5189 A 17.761000 -16.757160 24.000640 A
5190 A 17.326940 -16.765710 23.164580 A
5191 A 16.948270 -17.156910 22.350540 A
5192 A 16.087960 -16.601810 22.198690 A
5193 A 15.767050 -15.880310 22.856820 A
5194 B 15.567350 -15.062440 23.348180 B
5195 B 16.153780 -14.271560 23.466880 B
5196 B 15.961000 -14.506540 24.272890 B
5197 B 15.988950 -15.019500 -24.826600 B
5198 B 16.836300 -15.346580 -24.497570 B
5199 B 17.525040 -15.818600 24.939200 B
5200 B 17.921710 -16.434670 -24.409950 B
5201 A 18.337540 -15.664840 -24.107380 A
5202 A 18.920750 -15.428330 -24.883840 A
5203 A 19.497980 -15.112110 24.328800 A
5204 A 19.693940 -15.609700 23.513270 A
5205 A 19.348770 -15.825150 22.658130 A
5206 A 18.874290 -16.077760 21.900890 A
5207 A 14.728350 9.133495 17.979850 A
5208 A 15.571610 8.786488 18.245250 A
5209 A 16.221350 9.080557 18.899680 A
5210 A 16.864980 9.234893 19.648310 A
5211 A 17.470560 9.338231 20.379490 A
5212 A 18.166970 9.247922 21.028820 A
5213 B 18.706170 9.093145 21.815110 B
5214 B 19.345400 8.705334 22.417690 B
5215 B 20.260600 8.733848 22.515180 B
5216 B 21.196880 8.874293 22.438430 B
5217 B 21.513960 9.083628 21.550850 B
5218 B 21.382200 9.641009 20.784260 B
5219 B 20.905400 10.265590 20.242280 B
5220 A 20.308530 10.838400 19.738780 A
5221 A 19.499000 11.300500 19.451620 A
5222 A 19.040680 11.819730 18.792540 A
5223 A 19.248620 12.397790 18.029370 A
5224 A 19.716730 12.597510 17.205910 A
5225 A 20.479430 12.310750 16.702820 A
5226 A -1.764393 16.952940 9.445754 A
5227 A -1.123027 17.125360 8.744710 A
5228 A -0.185310 17.253210 8.629872 A
5229 A 0.343742 17.329040 9.387456 A
5230 A 0.755387 16.950600 10.114640 A
5231 A 1.085360 16.628690 10.927710 A
5232 B 1.476446 15.985590 11.599710 B
5233 B 2.161649 15.582400 12.185510 B
5234 B 1.846988 14.831120 12.645790 B
5235 B 1.125676 14.218260 12.434870 B
5236 B 0.429831 13.613300 12.714920 B
5237 B -0.384225 13.965630 13.119770 B
5238 B -0.749435 14.271770 12.242860 B
5239 A -0.406242 14.679130 11.428390 A
5240 A 0.511976 14.943100 11.421970 A
5241 A 1.439388 15.012830 11.188480 A
5242 A 2.372075 15.133910 11.224790 A
5243 A 3.238592 15.395530 11.561540 A
5244 A 4.145857 15.506190 11.855930 A
5245 A 11.137840 14.829980 16.518490 A
5246 A 10.276370 15.217510 16.817910 A
5247 A 9.908486 16.053520 16.560450 A
5248 A 9.281806 16.655240 16.126050 A
5249 A 8.780839 16.907340 15.368480 A
5250 A 8.047416 16.501360 14.797750 A
5251 B 7.173241 16.106530 14.914690 B
5252 B 6.335348 16.061010 15.292120 B
5253 B 5.393532 16.362490 15.421140 B
5254 B 5.563622 17.121230 16.077690 B
5255 B 6.253361 17.770940 16.267860 B
5256 B 6.147414 17.446860 17.213950 B
5257 B 7.117617 17.554650 17.113130 B
5258 A 7.699460 18.365540 17.094680 A
5259 A 8.483599 18.589060 16.544710 A
5260 A 8.243316 19.404510 17.078290 A
5261 A 8.203066 20.218640 16.718700 A
5262 A 8.991282 20.741390 16.570450 A
5263 A 9.454016 21.539610 16.454940 A
5264 A -10.446010 -13.188860 -15.024480 A
5265 A -9.867714 -12.631420 -15.635190 A
5266 A -9.437079 -12.775450 -16.494540 A
5267 A -8.804961 -13.194130 -17.081880 A
5268 A -8.147886 -13.541720 -17.689780 A
5269 A -7.165179 -13.698550 -17.588920 A
5270 B -6.758766 -13.595950 -16.753940 B
5271 B -6.039596 -13.916340 -16.310550 B
5272 B -5.227511 -14.306700 -16.127980 B
5273 B -5.951455 -14.931760 -15.951590 B
5274 B -6.909625 -15.051610 -15.845900 B
5275 B -7.857202 -15.089460 -15.705280 B
5276 B -8.647219 -14.676280 -15.296620 B
5277 A -8.995071 -14.172140 -14.556670 A
5278 A -9.758757 -13.747130 -14.095860 A
5279 A -10.660290 -14.035710 -13.920060 A
5280 A -11.518210 -14.432580 -14.044350 A
5281 A -12.425540 -14.676830 -13.802710 A
5282 A -13.359970 -14.514480 -13.940120 A
5283 A -19.044340 -2.651741 -20.996670 A
5284 A -18.316100 -2.625989 -20.344170 A
5285 A -17.397130 -2.772144 -20.085690 A
5286 A -16.704520 -2.097880 -20.077130 A
5287 A -15.904380 -1.538795 -20.090060 A
5288 A -15.452950 -0.722017 -19.972250 A
5289 B -14.723300 -0.220373 -19.569260 B
5290 B -14.129780 -0.954476 -19.555520 B
5291 B -13.322170 -1.499855 -19.461900 B
5292 B -13.146980 -0.887623 -20.179060 B
5293 B -12.936930 0.028650 -20.283530 B
5294 B -12.293730 0.708912 -20.392900 B
5295 B -11.722870 0.831864 -19.629280 B
5296 A -11.200090 0.347372 -19.014690 A
5297 A -10.765030 -0.511132 -19.043690 A
5298 A -10.256520 -0.953352 -19.756800 A
5299 A -9.875887 -0.667513 -20.565400 A
5300 A -9.214540 -0.188758 -21.087040 A
5301 A -8.477393 0.370484 -21.291550 A
5302 A 23.611380 2.199566 -3.480372 A
5303 A 24.546500 2.437943 -3.376588 A
5304 A -24.417090 2.473376 -3.162832 A
5305 A -23.984140 1.688110 -2.855728 A
5306 A -23.570010 0.880487 -2.644855 A
5307 A -23.020630 0.130688 -2.361491 A
5308 B -22.562400 -0.173214 -1.551533 B
5309 B -22.568380 -0.527616 -0.672767 B
5310 B -22.690790 -0.492364 0.271229 B
5311 B -22.897800 0.413007 0.674543 B
5312 B -23.763380 0.799837 0.673516 B
5313 B -24.570060 1.286656 0.871695 B
5314 B 24.700570 2.011945 0.757229 B
5315 A 24.252040 2.622487 0.247642 A
5316 A 23.822260 2.635116 -0.586996 A
5317 A 23.332450 2.179656 -1.289400 A
5318 A 22.854830 1.831844 -2.061264 A
5319 A 22.156700 1.530671 -2.600144 A
5320 A 21.812360 1.075695 -3.402586 A
5321 A 15.071990 -18.212670 23.366610 A
5322 A 14.148780 -17.947000 23.250240 A
5323 A 13.292080 -17.534430 23.317770 A
5324 A 12.461650 -17.108030 23.180520 A
5325 A 12.229030 -16.194470 23.093730 A
5326 A 12.159990 -15.236830 23.308870 A
5327 B 12.672510 -14.611930 23.815790 B
5328 B 12.677980 -13.764910 23.330660 B
5329 B 12.341880 -12.911400 23.138170 B
5330 B 13.075340 -13.432750 22.406210 B
5331 B 13.256690 -13.487390 21.330570 B
5332 B 14.132650 -13.416440 21.874960 B
5333 B 15.060540 -13.654890 21.924970 B
5334 A 14.778600 -14.222750 22.589990 A
5335 A 14.472670 -14.347420 23.451770 A
5336 A 14.331030 -15.052070 24.056350 A
5337 A 14.866100 -15.714990 24.677920 A
5338 A 14.711400 -16.202650 -24.387340 A
5339 A 13.724250 -16.413020 -24.457920 A
5340 A -19.871030 -11.501850 -24.208090 A
5341 A -19.447140 -11.387480 -23.387430 A
5342 A -19.969500 -10.780530 -23.034040 A
5343 A -20.085350 -10.323260 -22.192960 A
5344 A -20.877840 -10.859870 -22.072030 A
5345 A -21.386380 -11.641550 -22.039710 A
5346 B -21.153250 -12.071210 -22.864240 B
5347 B -21.476440 -12.590720 -23.607120 B
5348 B -21.499710 -12.778510 -24.551480 B
5349 B -20.558540 -12.940900 -24.936540 B
5350 B -20.077780 -13.372040 -24.199440 B
5351 B -19.822320 -13.406370 -23.264370 B
5352 B -19.398760 -14.229410 -22.875320 B
5353 A -18.849530 -14.877730 -22.383700 A
5354 A -17.996020 -15.301980 -22.546830 A
5355 A -18.037450 -15.578520 -23.472350 A
5356 A -17.881950 -15.762870 -24.378810 A
5357 A -17.991800 -15.864520 24.553960 A
5358 A -18.357930 -16.492750 23.866290 A
5359 A 14.557410 4.936878 -13.619360 A
5360 A 15.116920 4.163369 -13.645910 A
5361 A 15.106780 3.211736 -13.719050 A
5362 A 14.844320 2.386583 -14.116160 A
5363 A 14.566620 1.882469 -14.908640 A
5364 A 14.254960 2.357686 -15.640930 A
5365 B 15.045320 2.812555 -15.987350 B
5366 B 15.866180 3.299036 -15.787780 B
5367 B 16.456970 3.941519 -16.188690 B
5368 B 16.035000 4.838622 -16.323680 B
5369 B 15.143230 5.010720 -16.699170 B
5370 B 14.580610 5.013193 -17.526110 B
5371 B 14.203040 5.324230 -18.380030 B
5372 A 15.095160 5.225117 -18.826260 A
5373 A 15.963400 4.856355 -18.577830 A
5374 A 16.841600 5.199430 -18.777720 A
5375 A 17.541470 5.244287 -19.413080 A
5376 A 17.675260 5.881802 -20.135700 A
5377 A 17.703250 6.638231 -20.701730 A
5378 A 18.075340 5.807148 6.159469 A
5379 A 18.448210 5.339489 7.020350 A
5380 A 18.342290 4.329522 7.255911 A
5381 A 17.829180 3.582655 7.346541 A
5382 A 17.811840 3.657847 8.416081 A
5383 A 17.008090 3.301222 8.377804 A
5384 B 16.762340 3.331354 7.478190 B
5385 B 15.951650 3.179753 6.957906 B
5386 B 15.285010 2.525616 7.054182 B
5387 B 15.716340 2.387406 7.924961 B
5388 B 15.686410 2.420116 8.882467 B
5389 B 16.128430 2.403908 9.742249 B
5390 B 16.788060 1.920120 10.244510 B
5391 A 17.399510 1.298502 10.642750 A
5392 A 17.864640 0.560219 10.237820 A
5393 A 18.070820 0.513445 9.280055 A
5394 A 18.587790 0.842419 8.521558 A
5395 A 19.438510 1.089905 8.935660 A
5396 A 19.871060 1.392577 9.742299 A
5397 A 22.703370 23.514600 -21.316270 A
5398 A 22.967070 23.877190 -20.480400 A
5399 A 23.042090 24.602220 -19.875120 A
5400 A 23.402640 -24.407960 -19.782710 A
5401 A 24.102490 -24.111920 -20.413200 A
5402 A 24.948120 -23.984950 -20.870090 A
5403 B -24.547460 -24.806100 -20.476760 B
5404 B -24.217430 24.759000 -19.667420 B
5405 B -23.558210 24.605880 -18.980660 B
5406 B -22.863350 24.735720 -18.324970 B
5407 B -23.317230 -24.355790 -18.178930 B
5408 B -23.000660 -23.868970 -19.067500 B
5409 B -23.238420 -24.162390 -19.982580 B
5410 A -23.370710 -24.387430 -20.886250 A
5411 A -23.888880 24.777640 -21.331190 A
5412 A -24.483200 24.070090 -21.566150 A
5413 A -24.912720 23.241250 -21.260350 A
5414 A 24.684360 23.441380 -20.399650 A
5415 A 24.176370 23.396600 -19.595580 A
5416 A -11.992390 -5.080659 -18.261300 A
5417 A -11.540360 -4.728071 -17.486810 A
5418 A -11.045460 -4.317925 -16.741530 A
5419 A -10.154740 -4.335895 -17.122230 A
5420 A -9.521103 -4.549510 -17.790300 A
5421 A -9.202133 -5.374543 -18.103820 A
5422 B -8.952579 -6.314011 -18.021460 B
5423 B -8.384169 -6.992887 -18.426510 B
5424 B -7.635769 -7.415301 -18.859600 B
5425 B -7.236041 -7.787305 -19.592750 B
5426 B -6.872563 -7.620688 -20.521950 B
5427 B -6.695281 -6.685271 -20.753110 B
5428 B -6.853502 -5.900683 -21.322310 B
5429 A -7.715815 -5.451916 -21.293740 A
5430 A -8.042649 -4.745570 -21.759370 A
5431 A -7.633266 -3.929349 -21.569500 A
5432 A -6.905651 -3.393182 -21.975600 A
5433 A -6.554384 -3.087589 -22.790080 A
5434 A -6.150050 -3.330547 -23.580820 A
5435 A 9.155967 -7.540653 8.688079 A
5436 A 8.965441 -7.353513 9.602777 A
5437 A 9.195031 -7.249593 10.504790 A
5438 A 9.690056 -7.367588 11.286800 A
5439 A 9.872955 -8.144637 11.864100 A
5440 A 10.348860 -9.003595 11.864930 A
5441 B 10.486730 -9.614867 11.144950 B
5442 B 9.917240 -10.055310 10.486690 B
5443 B 9.437192 -10.872050 10.225100 B
5444 B 8.512139 -10.873090 9.864305 B
5445 B 8.137890 -11.055280 9.036545 B
5446 B 7.899470 -11.489980 8.191439 B
5447 B 7.591925 -11.845210 7.343762 B
5448 A 8.151359 -12.291210 6.670768 A
5449 A 8.638739 -12.682910 5.971350 A
5450 A 8.952770 -12.014470 5.333325 A
5451 A 8.827228 -11.204860 4.784058 A
5452 A 8.120158 -10.696270 4.390947 A
5453 A 7.233561 -10.294060 4.432004 A
5454 A 21.916630 23.624360 16.819100 A
5455 A 21.492670 24.287010 17.400300 A
5456 A 20.715920 24.598750 17.882810 A
5457 A 20.418220 23.692830 18.002050 A
5458 A 20.477220 22.937610 18.595560 A
5459 A 20.356100 22.055490 18.984050 A
5460 B 19.537500 22.087230 19.600050 B
5461 B 19.321660 23.009450 19.358200 B
5462 B 18.981270 23.282460 18.483640 B
5463 B 18.227600 23.048510 17.992700 B
5464 B 17.341950 22.975360 18.286090 B
5465 B 17.450240 23.041200 19.219840 B
5466 B 18.020370 23.453210 19.899340 B
5467 A 18.708100 24.153800 20.004140 A
5468 A 19.303240 24.882300 19.889360 A
5469 A 19.377690 -24.100110 19.703870 A
5470 A 19.263390 -23.141790 19.778990 A
5471 A 18.935060 -22.318300 19.423090 A
5472 A 18.187530 -21.707540 19.514160 A
5473 A -3.679078 -21.691430 8.491143 A
5474 A -3.653193 -22.350670 9.196051 A
5475 A -3.091357 -22.748410 9.832175 A
5476 A -2.116089 -22.588060 10.051630 A
5477 A -1.656939 -21.761250 9.783818 A
5478 A -2.018972 -20.850660 9.419154 A
5479 B -2.136042 -20.040200 8.917248 B
5480 B -2.124367 -19.305640 8.375530 B
5481 B -1.870287 -18.362270 8.545124 B
5482 B -1.027192 -18.506620 8.868088 B
5483 B -0.135220 -18.793470 8.722238 B
5484 B 0.115281 -19.600910 9.129601 B
5485 B 0.006289 -20.239030 9.865931 B
5486 A 0.554035 -20.930160 10.204760 A
5487 A 1.234791 -21.144710 10.949450 A
5488 A 1.429436 -20.826730 11.861560 A
5489 A 0.999750 -20.338210 12.595020 A
5490 A 0.782097 -20.413900 13.535190 A
5491 A 0.974513 -19.990030 14.350160 A
5492 A -22.459100 -4.938651 -5.937070 A
5493 A -22.384990 -5.585226 -5.204606 A
5494 A -22.888210 -5.973388 -4.500544 A
5495 A -23.471400 -6.468430 -3.863600 A
5496 A -23.589790 -7.316398 -3.432018 A
5497 A -24.118730 -7.853482 -2.821998 A
5498 B -24.912670 -8.103206 -2.355429 B
5499 B 24.350140 -7.661858 -1.792994 B
5500 B 24.216950 -7.180209 -0.979318 B
5501 B 24.465860 -6.442144 -0.395930 B
5502 B 24.793450 -5.564973 -0.478224 B
5503 B -24.336640 -5.049678 -0.597239 B
5504 B -23.526750 -4.585220 -0.634687 B
5505 A -23.112230 -3.806208 -1.029030 A
5506 A -22.885100 -3.531331 -1.919391 A
5507 A -22.981910 -3.542420 -2.866958 A
5508 A -23.208900 -4.034250 -3.657504 A
5509 A -23.828020 -4.552754 -4.177410 A
5510 A -24.700580 -4.460562 -4.574521 A
5511 A 22.431180 -8.860257 6.353251 A
5512 A 22.764880 -9.780621 6.446877 A
5513 A 23.353410 -10.554980 6.628604 A
5514 A 23.388940 -11.572440 6.638490 A
5515 A 23.467930 -12.236560 7.299708 A
5516 A 23.200090 -12.641380 8.103380 A
5517 B 23.048730 -11.691100 8.353989 B
5518 B 23.556920 -10.891460 8.291008 B
5519 B 23.756970 -10.229890 7.671760 B
5520 B 23.912800 -9.287247 7.619591 B
5521 B 24.204210 -8.726861 8.298273 B
5522 B 24.332290 -8.333718 9.142362 B
5523 B -24.646890 -8.458163 9.131450 B
5524 A -24.621470 -9.116675 8.363004 A
5525 A -23.850900 -9.622474 8.098557 A
5526 A -23.605290 -10.246820 7.433462 A
5527 A -23.738730 -9.781240 6.569902 A
5528 A -24.302230 -9.423607 5.893373 A
5529 A 24.801380 -9.142019 6.487682 A
5530 A 15.055430 -1.027032 1.012549 A
5531 A 14.523820 -1.108073 0.223532 A
5532 A 14.218020 -1.877612 -0.265872 A
5533 A 13.570880 -2.401458 -0.744718 A
5534 A 12.924450 -1.921643 -1.279342 A
5535 A 12.261480 -1.249976 -1.543914 A
5536 B 11.909000 -0.466957 -1.182773 B
5537 B 11.504420 0.364840 -0.983971 B
5538 B 10.644310 0.067367 -1.333660 B
5539 B 10.358310 -0.780686 -1.173478 B
5540 B 9.762448 -1.511219 -0.963601 B
5541 B 9.241361 -1.567701 -0.136099 B
5542 B 8.609052 -2.264704 0.084499 B
5543 A 8.057994 -2.272458 0.867871 A
5544 A 7.502526 -2.416994 1.664771 A
5545 A 7.727228 -2.677736 2.592516 A
5546 A 8.232283 -2.826742 3.358779 A
5547 A 8.729949 -3.594023 3.407413 A
5548 A 8.246451 -4.443830 3.553873 A
5549 A 14.275590 3.338251 5.461854 A
5550 A 14.702090 2.638241 4.821097 A
5551 A 14.656360 2.595455 3.870137 A
5552 A 13.938100 3.011824 3.340187 A
5553 A 14.452350 3.818216 3.182240 A
5554 A 14.870570 4.611869 3.642673 A
5555 B 14.669410 5.507908 3.734380 B
5556 B 13.920150 5.318675 4.322804 B
5557 B 14.184700 4.696806 4.860900 B
5558 B 14.914410 5.349224 4.695415 B
5559 B 15.714050 4.965904 4.636098 B
5560 B 16.685130 4.494751 4.326998 B
5561 B 16.685000 3.609204 3.813703 B
5562 A 15.747690 3.792578 3.445186 A
5563 A 15.595110 4.360641 2.686761 A
5564 A 15.438650 5.260339 2.390198 A
5565 A 15.067800 6.211209 2.544214 A
5566 A 14.422980 6.760491 3.054526 A
5567 A 13.892380 6.711257 3.868561 A
5568 A 23.994470 -21.674710 -15.837310 A
5569 A 23.784650 -22.426850 -15.317920 A
5570 A 23.697650 -23.059360 -14.586350 A
5571 A 23.854580 -22.255520 -14.187030 A
5572 A 24.290120 -21.399540 -14.001450 A
5573 A -24.918670 -21.810680 -14.505590 A
5574 B -24.285370 -22.266960 -15.143450 B
5575 B -24.258800 -23.256990 -15.348670 B
5576 B -24.727050 -23.939060 -14.951600 B
5577 B 24.607670 -24.242870 -14.260730 B
5578 B 24.593660 -23.586230 -13.574670 B
5579 B -24.442270 -23.289980 -13.401450 B
5580 B -23.687800 -22.751750 -13.121210 B
5581 A -22.729620 -22.853170 -12.879540 A
5582 A -22.823230 -23.850210 -13.035510 A
5583 A -23.320410 -24.590440 -13.262940 A
5584 A -23.368360 24.341120 -13.225460 A
5585 A -23.554580 23.564110 -13.751950 A
5586 A -23.291590 22.774300 -13.283050 A
5587 A -7.852430 22.079210 18.944150 A
5588 A -6.981418 22.089590 18.514760 A
5589 A -6.064090 22.423680 18.612120 A
5590 A -5.942983 23.155690 17.995600 A
5591 A -6.560328 23.558790 17.345300 A
5592 A -7.464751 23.481460 17.019380 A
5593 B -8.330574 23.639010 16.596090 B
5594 B -7.766672 24.299820 16.123910 B
5595 B -7.149898 -24.863860 16.097900 B
5596 B -7.415228 -24.004490 16.389730 B
5597 B -7.504464 -23.067150 16.302400 B
5598 B -8.191966 -22.705260 16.910540 B
5599 B -8.852432 -23.312430 17.230980 B
5600 A -9.349285 -24.102520 17.153160 A
5601 A -9.338736 24.884990 16.926260 A
5602 A -10.226500 24.694210 16.589710 A
5603 A -11.125180 24.503840 16.318900 A
5604 A -11.902350 -24.942220 15.961760 A
5605 A -12.536930 -24.372030 16.288370 A
5606 A 14.442110 8.985183 8.569794 A
5607 A 13.699560 9.169857 9.133609 A
5608 A 13.209980 9.522405 9.882140 A
5609 A 13.057220 9.902757 10.749580 A
5610 A 12.602720 10.651080 10.424900 A
5611 A 11.948090 10.909470 9.749213 A
5612 B 11.681080 11.372270 8.944644 B
5613 B 11.300300 11.558130 8.070960 B
5614 B 10.481720 11.485570 7.533710 B
5615 B 9.824048 11.759240 6.867166 B
5616 B 9.714680 12.393590 6.141825 B
5617 B 10.048640 12.698410 5.302548 B
5618 B 10.735870 12.046160 5.283844 B
5619 A 11.343240 11.394380 5.574955 A
5620 A 11.154780 10.719810 6.257830 A
5621 A 10.766730 9.991098 6.780706 A
5622 A 10.096700 9.487490 7.247434 A
5623 A 9.422625 8.972622 7.673738 A
5624 A 8.682254 8.388945 7.420137 A
5625 A 3.701750 -18.841250 -1.539023 A
5626 A 4.611603 -18.630710 -1.724227 A
5627 A 5.228165 -18.828950 -2.440990 A
5628 A 5.129426 -18.765850 -3.344996 A
5629 A 4.622154 -18.495510 -4.099246 A
5630 A 4.274039 -18.198450 -4.972604 A
5631 B 4.049651 -17.444680 -5.600289 B
5632 B 4.863042 -16.936830 -5.484557 B
5633 B 5.697409 -16.878990 -5.021577 B
5634 B 6.392857 -17.092280 -4.391262 B
5635 B 5.849977 -17.581250 -3.795723 B
5636 B 5.204161 -17.513710 -3.083963 B
5637 B 5.845792 -17.673330 -2.402284 B
5638 A 6.745124 -17.820900 -2.714638 A
5639 A 7.164244 -16.983260 -2.916324 A
5640 A 6.853328 -16.115200 -2.606883 A
5641 A 6.679549 -15.544220 -1.844707 A
5642 A 6.210157 -15.464080 -1.045171 A
5643 A 5.691428 -15.949080 -0.372062 A
5644 A 4.589550 16.618360 -5.060729 A
5645 A 3.819337 17.237920 -5.111424 A
5646 A 3.252497 17.969400 -5.183867 A
5647 A 2.336389 17.871090 -5.618556 A
5648 A 2.149969 17.905900 -6.525245 A
5649 A 1.941602 17.528310 -7.370459 A
5650 B 1.757867 18.374940 -7.741131 B
5651 B 2.464279 18.577840 -8.377312 B
5652 B 2.190156 18.205470 -9.227254 B
5653 B 1.667522 17.510110 -9.621707 B
5654 B 1.836263 16.615070 -9.485480 B
5655 B 2.345687 15.992300 -8.938146 B
5656 B 2.329376 15.056210 -8.538319 B
5657 A 1.383955 15.085010 -8.765542 A
5658 A 0.514796 15.452760 -8.911779 A
5659 A -0.318200 15.899050 -9.144197 A
5660 A -0.365602 16.785390 -8.805257 A
5661 A -0.209741 17.687270 -9.112435 A
5662 A 0.223646 18.507180 -8.766593 A
5663 A -8.494655 -17.051720 0.738887 A
5664 A -9.229247 -16.476220 0.572050 A
5665 A -10.122220 -16.545730 0.263136 A
5666 A -11.032060 -16.607750 -0.153377 A
5667 A -11.607310 -17.060260 -0.755643 A
5668 A -11.677730 -17.774050 -0.142557 A
5669 B -11.153940 -18.118550 0.583941 B
5670 B -10.272850 -18.088880 1.012794 B
5671 B -9.362761 -17.954420 1.278463 B
5672 B -9.243329 -18.190170 2.237273 B
5673 B -9.883274 -17.622040 2.583529 B
5674 B -10.693730 -17.933100 2.973298 B
5675 B -11.282630 -18.681650 2.917953 B
5676 A -11.302250 -18.453150 3.906037 A
5677 A -11.132280 -18.698500 4.829716 A
5678 A -11.916130 -19.205330 4.949741 A
5679 A -12.291420 -19.683190 4.172243 A
5680 A -12.767460 -19.742300 3.370034 A
5681 A -13.223800 -19.470000 2.563221 A
5682 A 23.115350 -4.449798 -8.096662 A
5683 A 23.470820 -5.089824 -8.637150 A
5684 A 23.865250 -5.819977 -9.042267 A
5685 A 24.530310 -6.512557 -8.748484 A
5686 A 24.093530 -7.345494 -9.183466 A
5687 A 23.949270 -8.287573 -9.308813 A
5688 B 23.266150 -8.607337 -9.944937 B
5689 B 22.339290 -8.501099 -10.188230 B
5690 B 21.620070 -7.934477 -10.231310 B
5691 B 20.957880 -7.974999 -9.610061 B
5692 B 20.557170 -7.670834 -8.795524 B
5693 B 20.211990 -7.155049 -8.051771 B
5694 B 19.495870 -6.830949 -7.373401 B
5695 A 20.097130 -6.130407 -7.327407 A
5696 A 20.422430 -5.272147 -7.271344 A
5697 A 20.767640 -4.577108 -7.787774 A
5698 A 20.198380 -4.986057 -8.440463 A
5699 A 19.489500 -5.483016 -8.837636 A
5700 A 18.617190 -5.792488 -9.162973 A
5701 A 9.798972 -21.584000 -5.535916 A
5702 A 8.892711 -21.821250 -5.822721 A
5703 A 8.159756 -21.438230 -6.254918 A
5704 A 8.015789 -20.961390 -7.153116 A
5705 A 8.203666 -20.210340 -7.753197 A
5706 A 8.529545 -20.510810 -8.595500 A
5707 B 9.176059 -21.137140 -8.936938 B
5708 B 8.833775 -22.046680 -9.001687 B
5709 B 8.921690 -22.951480 -9.345528 B
5710 B 9.338024 -23.720570 -9.775384 B
5711 B 10.282910 -23.743520 -9.802801 B
5712 B 11.230360 -23.752660 -9.651057 B
5713 B 12.108270 -23.754710 -9.295551 B
5714 A 12.878380 -24.180270 -8.850204 A
5715 A 13.430930 24.952090 -8.964623 A
5716 A 13.621490 24.814450 -9.951846 A
5717 A 13.692370 -24.627270 -10.820920 A
5718 A 13.698360 -24.057200 -11.590570 A
5719 A 13.718010 -23.205040 -12.109630 A
5720 A 20.083920 -4.542951 -10.485670 A
5721 A 19.631380 -3.912518 -11.086520 A
5722 A 20.079230 -3.414557 -11.850010 A
5723 A 20.403960 -2.922440 -12.578890 A
5724 A 20.855720 -3.723096 -12.968780 A
5725 A 20.512230 -4.374143 -13.595050 A
5726 B 20.657480 -4.944218 -14.355890 B
5727 B 19.956470 -5.014478 -15.069590 B
5728 B 19.074170 -5.069781 -15.574830 B
5729 B 18.513180 -4.394309 -15.942370 B
5730 B 18.439520 -3.610795 -16.452340 B
5731 B 18.224280 -2.819698 -16.946770 B
5732 B 18.422290 -2.153313 -17.517430 B
5733 A 18.852130 -1.575203 -18.128570 A
5734 A 19.504490 -1.250928 -18.766970 A
5735 A 20.205760 -1.839444 -19.107560 A
5736 A 20.974790 -2.199175 -19.570190 A
5737 A 21.734640 -2.758691 -19.770170 A
5738 A 22.305220 -3.515811 -19.755930 A
5739 A -20.111360 21.295790 23.038010 A
5740 A -20.170800 22.122110 23.567560 A
5741 A -19.846340 22.689620 24.217750 A
5742 A -19.222970 22.011630 24.546480 A
5743 A -18.638500 21.350130 -24.944640 A
5744 A -18.115730 20.682580 -24.566240 A
5745 B -17.344430 20.223710 -24.877860 B
5746 B -16.673810 19.537510 24.943830 B
5747 B -16.501500 18.655090 24.591150 B
5748 B -17.400610 18.766090 24.496810 B
5749 B -17.982740 18.058060 24.041990 B
5750 B -18.380010 17.918920 24.890580 B
5751 B -18.599060 17.791910 -24.081270 B
5752 A -18.615120 18.150970 -23.255220 A
5753 A -18.131930 18.815100 -22.860390 A
5754 A -17.220930 18.794490 -22.698670 A
5755 A -16.527280 18.640480 -23.275140 A
5756 A -16.209440 18.197470 -24.105890 A
5757 A -15.560690 18.105700 -24.808240 A
5758 A -4.959453 -13.007640 14.306960 A
5759 A -4.099331 -12.564960 14.073430 A
5760 A -3.201646 -12.431510 13.824050 A
5761 A -2.665187 -11.709210 13.573110 A
5762 A -2.184396 -10.942750 13.889730 A
5763 A -1.210801 -11.071600 13.732770 A
5764 B -0.259944 -11.167340 13.824540 B
5765 B -0.047792 -11.621520 14.652500 B
5766 B 0.452925 -11.338050 15.397400 B
5767 B 1.352939 -11.122710 15.453450 B
5768 B 2.309357 -11.089290 15.454330 B
5769 B 2.008877 -11.701470 14.750570 B
5770 B 1.646179 -11.837810 13.841560 B
5771 A 0.844257 -11.841220 13.282890 A
5772 A 0.144650 -11.608110 12.679180 A
5773 A -0.311036 -11.166190 11.982630 A
5774 A -1.042089 -10.884360 11.459670 A
5775 A -1.890492 -10.602050 11.089230 A
5776 A -2.697896 -10.303450 10.643840 A
5777 A 20.678490 -14.804120 -6.824280 A
5778 A 21.589970 -14.964460 -6.592997 A
5779 A 22.243890 -15.537220 -6.896435 A
5780 A 22.074520 -16.024390 -7.712757 A
5781 A 21.643280 -16.690200 -8.263743 A
5782 A 21.553600 -17.401290 -8.902108 A
5783 B 21.450510 -17.895900 -9.717766 B
5784 B 20.713810 -18.133770 -10.299100 B
5785 B 19.839130 -18.439250 -10.239500 B
5786 B 18.988710 -18.521570 -9.756266 B
5787 B 19.591910 -18.563670 -8.928687 B
5788 B 20.376530 -18.727560 -8.426191 B
5789 B 21.088800 -18.386580 -7.859340 B
5790 A 21.218270 -18.010160 -6.994658 A
5791 A 20.840050 -17.711800 -6.169424 A
5792 A 19.912160 -17.443220 -5.893750 A
5793 A 19.299600 -16.717130 -6.001855 A
5794 A 19.317760 -16.333480 -6.837514 A
5795 A 19.302190 -15.635330 -7.449043 A
5796 A 15.359350 20.384080 23.187000 A
5797 A 15.002720 19.616790 22.713610 A
5798 A 14.710180 18.764470 22.271650 A
5799 A 14.488610 17.870030 21.994530 A
5800 A 13.918870 17.133450 22.124830 A
5801 A 13.036000 16.725360 22.147050 A
5802 B 12.415900 17.155100 21.452900 B
5803 B 11.973550 17.704310 20.749290 B
5804 B 12.423020 17.296040 20.041140 B
5805 B 12.756800 16.626520 19.441210 B
5806 B 12.834730 16.011020 18.698390 B
5807 B 13.672370 16.352430 18.697640 B
5808 B 13.807300 17.171650 18.210030 B
5809 A 13.341150 17.925980 18.662020 A
5810 A 12.757470 17.534070 18.025910 A
5811 A 12.494350 17.065370 17.220760 A
5812 A 12.548710 16.605510 16.407780 A
5813 A 11.872490 17.134470 15.940260 A
5814 A 11.339360 17.602720 15.347820 A
5815 A -4.280351 -17.365880 -9.269832 A
5816 A -5.071047 -16.874310 -8.928679 A
5817 A -5.205803 -16.165450 -8.313824 A
5818 A -4.846287 -15.495390 -7.737802 A
5819 A -4.959287 -14.927320 -6.974298 A
5820 A -4.391381 -14.844080 -6.247572 A
5821 B -3.763656 -15.551960 -5.835104 B
5822 B -2.992887 -15.709920 -6.318388 B
5823 B -2.761284 -16.135810 -5.502589 B
5824 B -2.758553 -16.105290 -4.549993 B
5825 B -2.973641 -16.651940 -3.772251 B
5826 B -3.925807 -16.759400 -3.830793 B
5827 B -4.793359 -17.001850 -4.128017 B
5828 A -5.286061 -17.835490 -4.345782 A
5829 A -5.228111 -18.611140 -4.888695 A
5830 A -4.570176 -19.208800 -4.575373 A
5831 A -3.816844 -19.105770 -3.983911 A
5832 A -3.113928 -19.019690 -3.397501 A
5833 A -2.338192 -18.657020 -2.955541 A
5834 A -1.471252 -7.533614 -18.387470 A
5835 A -1.933300 -6.916565 -17.836360 A
5836 A -2.618714 -6.904375 -17.210340 A
5837 A -3.106057 -7.113200 -16.441110 A
5838 A -3.449721 -6.592216 -15.692200 A
5839 A -4.127333 -5.838696 -15.664410 A
5840 B -4.972249 -5.422051 -15.670040 B
5841 B -5.865144 -5.613507 -15.994300 B
5842 B -6.689738 -5.373175 -16.413460 B
5843 B -6.717457 -6.296680 -16.562140 B
5844 B -6.328073 -6.186429 -17.466470 B
5845 B -5.970493 -6.620638 -18.246960 B
5846 B -5.030262 -6.736198 -18.502950 B
5847 A -4.130604 -6.973104 -18.737960 A
5848 A -3.781598 -7.401744 -19.479450 A
5849 A -3.487056 -8.129648 -20.048000 A
5850 A -3.307701 -8.538104 -19.154580 A
5851 A -3.370191 -8.512952 -18.171700 A
5852 A -3.788978 -9.071864 -17.520750 A
5853 A -8.115747 -3.868526 -8.312134 A
5854 A -8.576936 -3.128988 -8.709414 A
5855 A -8.783264 -2.387268 -9.250538 A
5856 A -8.761887 -2.687297 -10.210550 A
5857 A -8.413116 -3.132163 -11.026390 A
5858 A -8.010493 -2.372810 -11.418090 A
5859 B -7.652177 -1.517683 -11.314880 B
5860 B -7.008282 -0.976717 -11.836070 B
5861 B -7.109140 -1.412535 -12.668370 B
5862 B -7.488055 -2.225343 -13.011460 B
5863 B -7.999001 -2.759532 -13.613280 B
5864 B -7.794163 -2.982515 -14.515090 B
5865 B -6.869453 -2.656489 -14.744990 B
5866 A -6.115580 -2.045745 -14.580650 A
5867 A -5.458282 -1.560670 -14.121290 A
5868 A -5.401332 -1.368652 -13.168060 A
5869 A -5.330245 -1.917150 -12.361600 A
5870 A -5.145533 -2.380880 -11.527020 A
5871 A -5.359200 -2.397096 -10.574380 A
5872 A -4.037142 5.478476 -11.532760 A
5873 A -3.214315 5.895081 -11.181600 A
5874 A -2.799852 6.415415 -10.516720 A
5875 A -3.059770 6.805135 -9.676353 A
5876 A -3.535550 7.285707 -8.963798 A
5877 A -3.629487 8.224515 -8.741345 A
5878 B -3.254633 9.125214 -8.786307 B
5879 B -2.351626 9.373272 -8.941160 B
5880 B -1.497056 9.707594 -9.155107 B
5881 B -0.818291 9.359865 -8.577096 B
5882 B -0.928940 8.439116 -8.719111 B
5883 B -0.652073 8.001893 -9.565578 B
5884 B -0.183797 7.427510 -10.179710 B
5885 A 0.221363 6.794911 -9.560966 A
5886 A 0.243040 7.030135 -8.616553 A
5887 A -0.317163 7.454834 -7.995976 A
5888 A -0.741223 7.933657 -7.279495 A
5889 A -1.332777 8.248037 -6.592515 A
5890 A -1.636617 8.386097 -5.673054 A
5891 A 6.103868 21.140710 20.701520 A
5892 A 6.812288 21.239190 21.371400 A
5893 A 7.119305 22.053120 21.647310 A
5894 A 7.880320 22.591840 21.307420 A
5895 A 8.783175 22.918160 20.977980 A
5896 A 8.915815 22.418590 21.780430 A
5897 B 8.366431 21.634900 21.915110 B
5898 B 7.862245 20.852530 22.059980 B
5899 B 7.432804 21.041360 22.914130 B
5900 B 7.518261 21.617660 23.731860 B
5901 B 6.762779 22.243010 23.815820 B
5902 B 5.876779 22.751530 24.047290 B
5903 B 5.123916 23.255370 23.873150 B
5904 A 4.597003 23.616850 23.198850 A
5905 A 5.308215 23.683270 22.517460 A
5906 A 6.014833 23.174630 22.236080 A
5907 A 6.836426 23.324390 22.574530 A
5908 A 7.431617 23.482540 21.759380 A
5909 A 8.031875 24.321580 22.542100 A
5910 A -11.863250 -11.197030 1.237059 A
5911 A -11.730790 -12.145370 1.261431 A
5912 A -12.016010 -12.848720 1.833483 A
5913 A -12.432720 -13.681300 2.220658 A
5914 A -12.709000 -13.604560 3.124142 A
5915 A -12.917340 -12.705380 3.406397 A
5916 B -13.700660 -12.458200 3.851442 B
5917 B -13.953550 -12.378680 4.774700 B
5918 B -13.721950 -13.012780 5.489315 B
5919 B -14.134610 -13.892800 5.716194 B
5920 B -14.546070 -14.786440 5.663246 B
5921 B -14.820840 -15.510990 5.119823 B
5922 B -15.047880 -15.864000 4.259791 B
5923 A -14.761880 -16.359230 3.527297 A
5924 A -14.155170 -17.025440 3.243118 A
5925 A -13.939620 -17.951100 3.270409 A
5926 A -14.146080 -18.634240 3.883080 A
5927 A -14.896010 -19.118280 4.305291 A
5928 A -14.921020 -19.866050 4.945332 A
5929 A -21.873290 21.016550 13.533790 A
5930 A -22.666530 21.566600 13.577470 A
5931 A -23.193700 22.047030 12.938570 A
5932 A -23.812710 21.347390 13.193640 A
5933 A -24.422800 20.695130 13.560150 A
5934 A 24.588210 20.970380 13.801290 A
5935 B 23.795930 21.390360 14.112870 B
5936 B 23.084450 21.799270 13.576630 B
5937 B 22.806270 21.566880 12.695430 B
5938 B 22.394110 21.511140 11.811570 B
5939 B 22.654370 21.080730 11.024010 B
5940 B 22.986170 20.908930 10.148050 B
5941 B 23.270040 21.336570 9.287391 B
5942 A 22.958050 22.216320 9.187270 A
5943 A 22.719660 22.977180 9.722575 A
5944 A 22.555070 22.861350 10.658250 A
5945 A 22.943380 22.756140 11.514390 A
5946 A 23.679750 22.459230 12.005320 A
5947 A 24.241350 21.708910 12.292530 A
5948 A -17.394590 -6.470800 -7.359169 A
5949 A -16.518030 -6.748907 -7.183894 A
5950 A -15.638120 -6.524501 -7.042508 A
5951 A -14.676350 -6.431652 -7.313293 A
5952 A -13.936120 -6.128755 -7.850444 A
5953 A -13.473670 -6.642359 -8.563788 A
5954 B -12.670440 -6.318984 -9.112161 B
5955 B -11.838700 -5.933473 -9.334656 B
5956 B -12.350950 -5.297685 -8.835161 B
5957 B -12.992500 -4.604815 -8.918980 B
5958 B -13.276060 -3.706283 -9.087015 B
5959 B -13.772140 -3.256801 -9.763767 B
5960 B -13.847320 -2.836751 -10.598310 B
5961 A -14.399820 -3.146197 -11.303300 A
5962 A -15.084740 -3.661988 -11.784180 A
5963 A -14.908310 -3.765174 -12.757400 A
5964 A -14.859800 -4.706242 -12.934240 A
5965 A -14.278090 -5.373936 -12.593830 A
5966 A -13.606290 -5.587667 -11.965100 A
5967 A 17.689310 -18.227040 -5.162121 A
5968 A 17.461670 -17.344440 -5.090176 A
5969 A 17.485430 -16.401710 -4.911106 A
5970 A 17.823190 -15.779670 -4.290280 A
5971 A 18.706190 -16.181720 -4.333878 A
5972 A 19.570890 -16.425940 -4.756083 A
5973 B 20.062980 -15.725450 -5.194538 B
5974 B 19.789300 -14.802160 -5.251256 B
5975 B 19.822470 -14.202390 -4.523130 B
5976 B 19.916140 -14.065000 -3.610683 B
5977 B 19.425190 -13.534150 -2.929456 B
5978 B 19.366810 -13.758700 -1.930571 B
5979 B 19.318620 -14.581800 -1.416273 B
5980 A 19.264300 -15.335800 -0.879787 A
5981 A 19.930550 -15.748330 -0.307831 A
5982 A 19.796450 -15.111740 0.373757 A
5983 A 19.262790 -14.670140 1.018741 A
5984 A 18.538860 -14.201850 1.432762 A
5985 A 18.037920 -13.526350 1.934946 A
5986 A 18.590180 13.094450 10.314740 A
5987 A 18.348690 12.427720 9.604207 A
5988 A 17.980100 11.545990 9.950302 A
5989 A 17.404460 11.108920 10.722030 A
5990 A 17.089170 10.912970 11.585390 A
5991 A 16.654250 11.710340 11.463800 A
5992 B 15.953180 12.314820 11.748500 B
5993 B 15.443530 13.044350 11.458120 B
5994 B 14.629030 13.525270 11.153300 B
5995 B 14.358140 13.115890 10.358060 B
5996 B 15.051940 12.753820 9.723396 B
5997 B 15.834670 13.269690 9.872141 B
5998 B 16.357610 13.859260 10.467060 B
5999 A 16.711550 14.216920 11.245000 A
6000 A 17.109470 15.059730 11.602880 A
6001 A 17.176180 15.790080 12.281830 A
6002 A 17.473910 16.734250 12.334260 A
6003 A 18.405840 17.097980 12.163450 A
6004 A 19.130400 17.248770 11.549440 A
6005 A -17.444840 9.196344 3.263838 A
6006 A -17.802680 8.623264 3.942807 A
6007 A -18.569500 8.696547 4.505367 A
6008 A -18.732730 8.237684 5.362022 A
6009 A -19.420390 8.426307 6.068751 A
6010 A -20.353240 8.546406 6.213795 A
6011 B -21.191640 8.068163 6.149688 B
6012 B -21.506840 7.512268 5.410173 B
6013 B -20.917140 7.055571 4.781538 B
6014 B -20.226960 6.693906 4.268652 B
6015 B -19.428710 6.241134 3.999866 B
6016 B -18.603020 5.700061 3.999749 B
6017 B -18.132840 4.957519 4.414093 B
6018 A -18.762760 4.730849 5.066957 A
6019 A -19.545360 4.466012 5.547453 A
6020 A -19.681350 4.230865 4.614707 A
6021 A -19.636260 3.334942 4.338960 A
6022 A -19.669970 2.425401 4.614242 A
6023 A -19.156310 1.743104 5.015738 A
6024 A -17.565870 3.156625 -15.391440 A
6025 A -17.687660 3.389816 -14.531150 A
6026 A -17.284860 2.978227 -13.893870 A
6027 A -16.492960 3.152752 -13.982860 A
6028 A -15.658230 3.666788 -13.706210 A
6029 A -15.043290 3.803670 -12.829050 A
6030 B -15.687730 3.428769 -12.129880 B
6031 B -16.395080 2.791967 -11.905090 B
6032 B -16.447730 1.918671 -12.220750 B
6033 B -16.776080 1.183426 -11.670230 B
6034 B -17.138660 0.570368 -11.037720 B
6035 B -16.969460 -0.248620 -11.482160 B
6036 B -16.844810 -0.715189 -12.287200 B
6037 A -16.498000 -0.203377 -13.042010 A
6038 A -16.202380 0.233038 -13.868380 A
6039 A -16.513470 0.054987 -14.742550 A
6040 A -17.192860 0.688133 -14.816810 A
6041 A -17.753760 1.452245 -14.437010 A
6042 A -17.058100 2.164900 -14.503950 A
6043 A -4.435185 -20.967980 15.909600 A
6044 A -4.728992 -20.325480 15.255500 A
6045 A -4.883930 -20.688010 14.406120 A
6046 A -4.311852 -21.236960 13.800710 A
6047 A -3.828628 -21.880370 13.261040 A
6048 A -3.089494 -22.508260 13.293290 A
6049 B -2.778409 -23.428070 13.362970 B
6050 B -3.582869 -23.938690 13.256860 B
6051 B -4.301455 -24.406570 13.698520 B
6052 B -4.293569 -24.525790 14.656590 B
6053 B -4.200234 -24.802390 15.595170 B
6054 B -3.397724 24.766190 16.009230 B
6055 B -2.559208 24.361080 16.233280 B
6056 A -1.697383 24.095380 16.563650 A
6057 A -0.982921 23.480640 16.313930 A
6058 A -0.670259 22.789010 15.713520 A
6059 A -0.387340 22.374120 14.878750 A
6060 A -0.197695 21.621220 14.318130 A
6061 A -0.031845 20.901840 13.660190 A
6062 A 14.628820 17.334120 -6.024317 A
6063 A 13.792380 17.270980 -6.492325 A
6064 A 12.915800 17.573250 -6.816765 A
6065 A 12.910060 17.967110 -7.688310 A
6066 A 12.985670 17.852900 -8.602605 A
6067 A 12.592410 17.226450 -9.282387 A
6068 B 12.631030 16.847190 -10.165080 B
6069 B 12.850130 17.428340 -10.902300 B
6070 B 13.752920 17.785220 -11.103130 B
6071 B 14.321740 18.585370 -11.022810 B
6072 B 15.146280 18.873880 -11.389430 B
6073 B 16.019050 19.232590 -11.160740 B
6074 B 16.780710 19.174240 -11.742650 B
6075 A 17.663480 18.886040 -12.146740 A
6076 A 18.389090 18.960830 -12.809400 A
6077 A 19.201320 19.235100 -13.262080 A
6078 A 19.836030 19.601900 -13.906560 A
6079 A 20.198770 20.357080 -14.384510 A
6080 A 20.420820 21.240910 -14.616360 A
6081 A 21.603360 -9.740355 -16.527030 A
6082 A 21.795220 -8.937133 -15.957870 A
6083 A 21.470480 -8.184850 -15.408970 A
6084 A 21.114100 -7.534382 -14.746950 A
6085 A 21.711240 -7.198291 -14.093430 A
6086 A 22.296500 -6.594531 -13.577200 A
6087 B 23.259550 -6.463655 -13.484740 B
6088 B 23.326810 -5.919741 -12.656470 B
6089 B 23.117760 -5.185907 -12.090360 B
6090 B 22.696790 -5.160448 -11.236940 B
6091 B 21.932240 -5.751936 -11.001510 B
6092 B 21.338100 -6.519299 -11.104910 B
6093 B 21.288200 -7.457001 -11.302470 B
6094 A 21.563090 -8.190966 -11.818270 A
6095 A 21.357630 -8.942923 -12.363060 A
6096 A 21.517590 -9.645269 -13.023260 A
6097 A 21.396040 -10.510530 -13.515380 A
6098 A 21.142410 -11.451160 -13.720380 A
6099 A 20.349110 -11.914560 -14.105910 A
6100 A 1.866727 15.202840 4.048494 A
6101 A 2.718615 15.591690 4.293324 A
6102 A 3.299576 16.259900 3.955882 A
6103 A 3.839599 16.983320 3.521134 A
6104 A 4.451479 17.491010 2.979666 A
6105 A 4.841918 17.990170 2.248580 A
6106 B 5.592509 17.772170 1.646883 B
6107 B 6.057439 17.602000 0.868262 B
6108 B 5.954201 17.076480 0.081284 B
6109 B 5.100504 16.763840 -0.267254 B
6110 B 5.017874 15.842540 -0.569584 B
6111 B 5.569172 15.037010 -0.628905 B
6112 B 6.161499 14.494570 -0.100519 B
6113 A 6.428114 14.372740 0.826384 A
6114 A 7.189826 13.815120 1.180386 A
6115 A 7.951285 13.403420 1.533511 A
6116 A 8.683972 13.070510 2.058716 A
6117 A 9.375831 12.862960 2.661913 A
6118 A 10.117540 12.524690 3.166974 A
6119 A 5.444220 4.756157 -7.489014 A
6120 A 5.251034 5.563148 -8.053216 A
6121 A 5.462708 6.016580 -8.889201 A
6122 A 5.002218 6.076878 -9.715358 A
6123 A 4.080757 5.858508 -9.815398 A
6124 A 3.515216 5.216167 -10.223000 A
6125 B 3.316184 4.480691 -10.855870 B
6126 B 3.001255 3.605800 -11.117650 B
6127 B 2.413864 2.836654 -11.153090 B
6128 B 1.648486 2.254236 -11.052600 B
6129 B 1.332143 2.999808 -10.608950 B
6130 B 0.901952 3.417482 -11.367260 B
6131 B 0.469435 3.662465 -12.161730 B
6132 A 0.013128 3.561472 -12.996370 A
6133 A -0.430716 3.576838 -13.839560 A
6134 A -0.270092 3.884111 -14.758310 A
6135 A 0.503723 3.450542 -15.130370 A
6136 A 1.173274 2.949050 -15.634450 A
6137 A 1.972648 2.881738 -16.107920 A
6138 A 14.521770 14.546490 20.967340 A
6139 A 13.916850 14.964920 21.577030 A
6140 A 13.224750 14.875930 22.277710 A
6141 A 12.564560 14.358540 21.861820 A
6142 A 11.753660 14.342900 21.327950 A
6143 A 10.940930 14.754490 21.566160 A
6144 B 10.286650 14.822490 22.235830 B
6145 B 9.505834 14.917110 21.648400 B
6146 B 8.722939 14.709450 21.125070 B
6147 B 8.383226 14.075610 20.366270 B
6148 B 8.296605 13.649250 19.481510 B
6149 B 8.437405 13.260940 18.642300 B
6150 B 9.260773 13.200470 19.150520 B
6151 A 9.726924 13.078150 19.978770 A
6152 A 9.335751 12.591450 20.723560 A
6153 A 8.824114 12.108540 21.440320 A
6154 A 9.246684 12.786070 21.978230 A
6155 A 9.989958 13.351490 22.152040 A
6156 A 10.876610 13.529370 22.452450 A
6157 A 22.669120 3.587402 -9.577061 A
6158 A 21.920070 3.046150 -9.716789 A
6159 A 21.552890 2.240993 -9.963144 A
6160 A 21.062610 1.613489 -9.419186 A
6161 A 20.485180 1.852723 -8.684617 A
6162 A 20.095040 2.440934 -8.126975 A
6163 B 20.487560 3.386453 -7.977335 B
6164 B 20.824130 4.229691 -7.777851 B
6165 B 21.500870 4.900973 -7.682664 B
6166 B 22.054070 4.871904 -8.486796 B
6167 B 22.847250 5.272477 -8.308492 B
6168 B 23.055340 5.718432 -7.528010 B
6169 B 23.089590 5.448590 -6.565940 B
6170 A 23.272800 4.776986 -5.862389 A
6171 A 22.596650 4.133225 -5.752656 A
6172 A 22.726390 3.304605 -5.254497 A
6173 A 22.774480 2.538243 -4.698908 A
6174 A 22.976410 1.665199 -5.141642 A
6175 A 23.690700 1.123761 -4.896819 A
6176 A -15.095520 -22.377930 -9.406682 A
6177 A -15.500980 -21.582260 -9.688905 A
6178 A -15.982700 -20.746240 -9.503219 A
6179 A -16.408140 -20.313330 -8.696942 A
6180 A -15.863890 -20.192620 -7.855568 A
6181 A -15.043290 -19.576550 -7.545875 A
6182 B -14.755620 -18.677070 -7.420859 B
6183 B -14.642590 -17.665680 -7.070979 B
6184 B -15.209380 -17.556060 -6.299209 B
6185 B -16.025230 -17.904390 -6.597013 B
6186 B -16.748220 -18.410040 -6.136145 B
6187 B -17.409850 -19.005930 -5.756278 B
6188 B -17.409860 -19.925910 -5.644428 B
6189 A -17.192690 -20.737270 -6.137571 A
6190 A -16.276610 -20.490570 -6.275873 A
6191 A -15.538310 -21.047580 -5.929687 A
6192 A -15.779260 -20.797960 -5.083449 A
6193 A -15.395290 -19.933490 -4.913225 A
6194 A -14.506910 -19.504630 -4.804033 A
6195 A 17.506400 -11.769710 -15.590390 A
6196 A 17.999490 -12.561620 -15.862930 A
6197 A 18.603990 -13.032210 -16.489020 A
6198 A 19.425600 -13.296100 -16.946320 A
6199 A 20.381480 -13.261210 -17.080290 A
6200 A 20.825190 -12.578410 -17.610820 A
6201 B 20.029730 -12.188740 -17.878380 B
6202 B 19.301970 -11.718680 -18.295940 B
6203 B 18.720210 -11.436400 -19.016170 B
6204 B 18.244600 -10.602550 -19.270580 B
6205 B 17.800700 -9.786279 -19.007110 B
6206 B 17.558760 -9.154302 -18.324760 B
6207 B 17.470700 -8.768188 -17.434460 B
6208 A 17.650400 -8.513997 -16.537240 A
6209 A 18.408370 -9.126060 -16.561820 A
6210 A 19.037930 -9.682221 -17.102450 A
6211 A 19.731520 -10.068800 -17.657690 A
6212 A 20.588340 -10.306050 -18.047860 A
6213 A 21.155860 -10.865890 -18.579320 A
6214 A 7.552044 18.776710 20.934120 A
6215 A 7.238091 17.906080 20.619920 A
6216 A 7.936789 17.732120 20.033880 A
6217 A 8.871345 17.544760 20.310740 A
6218 A 9.639089 17.428940 20.806700 A
6219 A 9.943689 16.816400 21.457690 A
6220 B 9.947364 17.192230 22.320170 B
6221 B 10.223950 17.483550 23.175020 B
6222 B 10.165980 18.141860 23.846360 B
6223 B 9.250590 18.018170 24.054830 B
6224 B 8.579729 18.085010 24.769510 B
6225 B 8.355789 17.259210 -24.766800 B
6226 B 8.482888 16.739280 24.377220 B
6227 A 8.588617 16.709220 23.429290 A
6228 A 8.503096 16.563840 22.479310 A
6229 A 8.252410 15.996690 21.747360 A
6230 A 7.451794 15.442980 21.682460 A
6231 A 6.962317 15.114430 22.424640 A
6232 A 6.737824 14.608120 23.255960 A
6233 A 24.273080 -8.863907 -7.978356 A
6234 A 23.600020 -9.385543 -7.571867 A
6235 A 23.259140 -8.616272 -7.062742 A
6236 A 23.168660 -7.996196 -6.340304 A
6237 A 22.676910 -7.678693 -5.547588 A
6238 A 22.138810 -7.360056 -6.287245 A
6239 B 21.382470 -7.290881 -6.890226 B
6240 B 21.153500 -7.743299 -7.702004 B
6241 B 20.385580 -7.757421 -7.116222 B
6242 B 20.343840 -7.554908 -6.151499 B
6243 B 20.170660 -7.539791 -5.183385 B
6244 B 20.277410 -8.460502 -4.904709 B
6245 B 20.552040 -9.412099 -4.758543 B
6246 A 20.066920 -10.265550 -4.862849 A
6247 A 19.224540 -10.599060 -4.513150 A
6248 A 18.478870 -10.570150 -3.909809 A
6249 A 18.839220 -9.928837 -3.285683 A
6250 A 19.748710 -9.695758 -3.013789 A
6251 A 20.501570 -9.144378 -2.751117 A
6252 A 16.834800 18.161460 -15.584230 A
6253 A 17.518040 18.675560 -16.016060 A
6254 A 17.953480 19.450040 -16.284240 A
6255 A 18.083850 20.382680 -16.043040 A
6256 A 19.064060 20.140380 -16.067910 A
6257 A 19.854820 19.885120 -16.729320 A
6258 B 20.082250 20.005450 -17.681540 B
6259 B 19.992130 19.921540 -18.689860 B
6260 B 20.811470 19.559820 -19.378080 B
6261 B 19.803820 19.558190 -19.700220 B
6262 B 19.001440 19.969710 -19.628350 B
6263 B 18.753790 20.750470 -19.101090 B
6264 B 18.674330 21.633870 -19.577280 B
6265 A 18.038400 22.343290 -19.153410 A
6266 A 17.176750 21.535920 -18.439270 A
6267 A 16.535050 21.881010 -17.743450 A
6268 A 15.827930 21.713440 -18.245770 A
6269 A 15.404810 22.507270 -18.523140 A
6270 A 15.430920 23.335170 -18.854700 A
6271 A -21.312480 19.969810 -8.849165 A
6272 A -20.699070 20.005430 -8.072898 A
6273 A -19.772310 20.168310 -7.884747 A
6274 A -18.829130 20.015430 -7.952492 A
6275 A -18.328440 19.359100 -8.481451 A
6276 A -18.350210 18.390060 -8.362138 A
6277 B -18.297600 18.533330 -7.436873 B
6278 B -17.683690 18.377370 -6.685241 B
6279 B -17.180550 17.631630 -6.997371 B
6280 B -17.566820 16.759180 -7.024209 B
6281 B -17.510180 15.996110 -6.413079 B
6282 B -16.607250 16.302110 -6.308922 B
6283 B -15.871230 16.826140 -6.598631 B
6284 A -14.938580 17.050540 -6.346356 A
6285 A -14.384670 16.302750 -6.338887 A
6286 A -14.676960 15.741290 -7.083740 A
6287 A -14.965330 15.487730 -7.926688 A
6288 A -15.599600 15.014500 -8.429412 A
6289 A -15.582750 14.629150 -9.366122 A
6290 A -5.366771 -6.111626 -14.219170 A
6291 A -5.711541 -6.576405 -14.948370 A
6292 A -6.438092 -6.955775 -14.423090 A
6293 A -6.065643 -7.214987 -13.576690 A
6294 A -5.805355 -7.172697 -12.687330 A
6295 A -6.448036 -7.604867 -12.172010 A
6296 B -6.901470 -8.433784 -12.037590 B
6297 B -6.637397 -9.153326 -11.492640 B
6298 B -5.717088 -9.352771 -11.564290 B
6299 B -4.949287 -8.764400 -11.739960 B
6300 B -4.018501 -8.676982 -12.059010 B
6301 B -3.404793 -8.819520 -12.800910 B
6302 B -2.910526 -8.620686 -13.600670 B
6303 A -2.629581 -9.427362 -14.112190 A
6304 A -2.992237 -10.115470 -13.547280 A
6305 A -3.541004 -10.590630 -12.906460 A
6306 A -4.073196 -11.414470 -13.084390 A
6307 A -3.663586 -12.060450 -13.660910 A
6308 A -2.916060 -12.516680 -14.062760 A
6309 A -4.035104 6.881177 11.145750 A
6310 A -4.616234 6.985493 10.357700 A
6311 A -5.513570 7.080697 10.071980 A
6312 A -6.108202 7.386332 9.318054 A
6313 A -6.868288 7.933899 9.046718 A
6314 A -7.769907 8.150747 9.160487 A
6315 B -8.528381 7.545082 9.266919 B
6316 B -8.541780 7.913510 8.366011 B
6317 B -8.118768 8.608361 7.766763 B
6318 B -7.939461 9.526428 7.396559 B
6319 B -6.990297 9.018412 7.394104 B
6320 B -6.099859 9.281569 7.201638 B
6321 B -5.429436 8.633762 7.210615 B
6322 A -5.160709 7.942846 6.649728 A
6323 A -4.419604 7.598936 6.184590 A
6324 A -3.688450 8.201926 6.530555 A
6325 A -3.636181 9.133231 6.422664 A
6326 A -3.108979 9.893616 6.576030 A
6327 A -3.368330 10.859820 6.672024 A
6328 A -17.773190 9.884168 10.310360 A
6329 A -17.095910 10.304330 10.840280 A
6330 A -16.542180 10.918420 11.366480 A
6331 A -15.982500 11.721180 11.579950 A
6332 A -15.765550 12.284210 10.846610 A
6333 A -15.954800 12.806270 10.025220 A
6334 B -16.113060 12.525630 9.051990 B
6335 B -16.488360 11.926530 8.331116 B
6336 B -17.198560 11.810930 7.735253 B
6337 B -17.559440 12.410590 6.929962 B
6338 B -17.323430 13.293230 6.628448 B
6339 B -16.745300 13.941310 6.969886 B
6340 B -16.991780 14.492810 7.741384 B
6341 A -17.401380 14.961500 8.486197 A
6342 A -17.825480 15.458840 9.126543 A
6343 A -18.293690 16.211290 9.563469 A
6344 A -17.880100 16.869360 10.126050 A
6345 A -18.163700 17.712550 9.798809 A
6346 A -17.971410 18.383770 9.018119 A
6347 A 8.320541 -22.555160 -17.226340 A
6348 A 9.123004 -22.754550 -16.775880 A
6349 A 9.330624 -22.885610 -15.857820 A
6350 A 9.336441 -22.241630 -15.075410 A
6351 A 9.289434 -21.935540 -14.188260 A
6352 A 9.141633 -22.443190 -13.391170 A
6353 B 9.668827 -22.625280 -12.612020 B
6354 B 10.601960 -22.799290 -12.448100 B
6355 B 10.780890 -21.985770 -11.887620 B
6356 B 10.571340 -21.051640 -11.658550 B
6357 B 10.483870 -20.196050 -11.234460 B
6358 B 10.702830 -20.028350 -10.299550 B
6359 B 10.686050 -20.252570 -9.404655 B
6360 A 11.148830 -21.013580 -9.084811 A
6361 A 11.912440 -21.623530 -9.008162 A
6362 A 12.789130 -21.986440 -8.958838 A
6363 A 13.308010 -22.625080 -8.511467 A
6364 A 13.901840 -23.068380 -7.884835 A
6365 A 14.049060 -22.779940 -6.994945 A
6366 A -21.563790 22.990040 -15.926540 A
6367 A -21.339570 23.073600 -16.888230 A
6368 A -20.735280 23.440360 -17.584610 A
6369 A -20.069630 23.244650 -18.291070 A
6370 A -19.716500 22.395700 -17.971660 A
6371 A -19.342270 22.042930 -17.187450 A
6372 B -18.577540 22.117510 -16.606960 B
6373 B -17.908460 22.100470 -15.959400 B
6374 B -17.792500 22.873330 -15.451690 B
6375 B -18.207120 23.703140 -15.673750 B
6376 B -19.033410 23.771890 -16.163100 B
6377 B -19.390980 24.607460 -15.793550 B
6378 B -19.348340 -24.503830 -15.280450 B
6379 A -19.451800 -23.796830 -14.615160 A
6380 A -18.673020 -23.216830 -14.533810 A
6381 A -17.987270 -23.388990 -15.150180 A
6382 A -17.300650 -24.078740 -15.101230 A
6383 A -16.582600 -24.741710 -15.207730 A
6384 A -15.961400 24.680690 -15.802100 A
6385 A -17.302340 4.088053 -7.517700 A
6386 A -18.296920 4.087567 -7.371674 A
6387 A -18.923580 3.388819 -7.789554 A
6388 A -19.801800 3.041870 -7.806184 A
6389 A -20.571720 2.675269 -7.354528 A
6390 A -20.974770 1.980212 -6.797967 A
6391 B -21.023430 1.680730 -5.861151 B
6392 B -20.536790 1.121077 -5.297156 B
6393 B -20.425800 0.881525 -6.223537 B
6394 B -20.663850 0.775048 -7.162215 B
6395 B -21.133960 1.004543 -7.975438 B
6396 B -21.354030 0.997746 -8.935804 B
6397 B -21.555120 1.418835 -9.764880 B
6398 A -21.528490 2.235657 -10.226800 A
6399 A -22.511720 2.028328 -9.936674 A
6400 A -22.625610 2.526065 -10.696480 A
6401 A -22.414950 3.390676 -10.362920 A
6402 A -22.402480 3.742405 -9.445211 A
6403 A -22.192620 4.208560 -8.660240 A
6404 A -20.245060 17.652540 12.127440 A
6405 A -20.601910 16.959640 11.559230 A
6406 A -20.728000 16.134720 11.023550 A
6407 A -21.515190 16.034560 10.436980 A
6408 A -22.429370 16.216000 10.281420 A
6409 A -22.090530 17.026920 9.865080 A
6410 B -21.269380 17.585160 9.681413 B
6411 B -20.983640 18.123720 10.447010 B
6412 B -20.524050 18.314130 11.268530 B
6413 B -20.190990 18.882910 11.949080 B
6414 B -19.704270 19.353290 12.648870 B
6415 B -19.255410 20.155450 12.839740 B
6416 B -18.944490 20.985170 12.483160 B
6417 A -19.226060 21.861820 12.256570 A
6418 A -19.954980 22.426500 12.418400 A
6419 A -20.527070 22.119660 13.120460 A
6420 A -20.885340 21.748560 13.963100 A
6421 A -20.963020 20.984500 14.553630 A
6422 A -21.231250 20.258380 15.099910 A
6423 A 6.400198 10.166660 -8.509399 A
6424 A 5.630554 10.433860 -7.976076 A
6425 A 4.811416 10.721710 -8.299769 A
6426 A 4.180593 11.345800 -8.863623 A
6427 A 3.922795 10.433200 -9.135518 A
6428 A 3.699136 9.515216 -9.320994 A
6429 B 3.578372 8.958423 -8.561800 B
6430 B 3.373813 9.122388 -7.615052 B
6431 B 2.857466 9.626198 -6.919943 B
6432 B 2.008734 10.021210 -6.729571 B
6433 B 1.404732 10.722680 -7.070011 B
6434 B 1.442647 10.735930 -8.026675 B
6435 B 1.105276 10.050990 -8.627787 B
6436 A 1.389609 9.125567 -8.753046 A
6437 A 2.243769 8.685086 -8.977551 A
6438 A 2.295637 7.934064 -9.617072 A
6439 A 3.164990 7.563664 -9.307845 A
6440 A 4.112484 7.196798 -9.237524 A
6441 A 4.517083 6.420766 -8.764544 A
6442 A -22.027920 -4.757429 -13.145950 A
6443 A -21.346230 -4.473707 -13.787150 A
6444 A -20.985880 -4.169667 -14.643110 A
6445 A -20.906000 -4.044074 -15.610540 A
6446 A -20.094450 -4.545979 -15.911740 A
6447 A -19.610910 -5.299008 -15.634610 A
6448 B -19.303410 -5.792120 -14.842140 B
6449 B -19.588500 -6.278552 -14.050130 B
6450 B -20.156130 -7.031646 -14.251600 B
6451 B -20.029180 -7.634454 -14.965000 B
6452 B -19.813300 -7.800128 -15.910610 B
6453 B -20.246650 -7.798409 -16.769470 B
6454 B -20.877750 -8.313523 -17.321090 B
6455 A -21.504730 -9.030545 -17.301490 A
6456 A -21.092630 -9.845322 -17.625440 A
6457 A -20.294490 -10.073020 -18.129450 A
6458 A -19.605910 -10.517330 -18.622620 A
6459 A -19.836890 -11.417560 -18.708920 A
6460 A -19.757620 -12.365410 -18.856290 A
6461 A -20.899070 20.820950 -0.089632 A
6462 A -20.560770 19.942400 -0.510375 A
6463 A -20.886620 19.058140 -0.403771 A
6464 A -21.632540 18.476060 -0.236176 A
6465 A -22.540820 18.251880 -0.012461 A
6466 A -22.928650 19.134170 -0.034568 A
6467 B -22.846430 19.970520 -0.471103 B
6468 B -22.351550 20.370090 -1.141134 B
6469 B -21.954770 20.758850 -1.869044 B
6470 B -21.235300 20.259440 -2.260458 B
6471 B -20.311880 20.060240 -2.316503 B
6472 B -19.544700 20.014310 -1.703020 B
6473 B -18.940260 19.580720 -1.116390 B
6474 A -18.544050 18.986980 -0.483658 A
6475 A -18.445530 18.496520 0.349660 A
6476 A -18.814880 18.114940 1.180078 A
6477 A -19.425570 18.657010 1.629124 A
6478 A -19.864310 19.221350 2.236572 A
6479 A -19.812360 20.136710 2.548884 A
6480 A 5.980010 10.380370 7.194457 A
6481 A 6.155287 9.709468 7.832424 A
6482 A 6.751598 9.229527 8.405422 A
6483 A 7.550972 9.098575 8.925359 A
6484 A 8.447734 9.035254 9.150107 A
6485 A 9.189737 9.498466 8.657206 A
6486 B 8.806993 10.354020 8.500222 B
6487 B 8.141547 11.037520 8.736086 B
6488 B 7.530604 11.710090 8.447064 B
6489 B 6.696043 12.113100 8.193048 B
6490 B 7.253250 12.046530 7.397252 B
6491 B 7.422052 12.109510 6.444865 B
6492 B 6.552633 12.362590 6.060472 B
6493 A 5.670033 12.354960 6.363081 A
6494 A 4.951550 12.148490 6.951606 A
6495 A 4.779006 11.346240 7.523377 A
6496 A 4.227992 10.574440 7.451368 A
6497 A 3.778560 9.913884 6.909282 A
6498 A 4.117182 9.669678 6.054043 A
6499 A 13.238460 -17.441280 5.265881 A
6500 A 13.332340 -17.584110 4.319368 A
6501 A 12.937630 -17.748330 3.452721 A
6502 A 12.499130 -18.041670 2.705919 A
6503 A 12.519470 -18.865750 2.221747 A
6504 A 12.613410 -19.796330 2.240825 A
6505 B 12.435320 -20.668760 2.613162 B
6506 B 13.390140 -20.664820 2.666238 B
6507 B 13.940970 -19.870220 2.573654 B
6508 B 14.274190 -19.141270 2.035010 B
6509 B 13.991060 -18.482990 1.422763 B
6510 B 13.555050 -18.108090 0.659690 B
6511 B 12.965400 -17.564440 0.137083 B
6512 A 12.941450 -16.610440 0.029557 A
6513 A 13.563160 -16.200410 0.608571 A
6514 A 14.454140 -15.883660 0.770965 A
6515 A 15.080860 -15.325970 1.256011 A
6516 A 15.302590 -14.663480 1.978821 A
6517 A 15.877770 -13.869700 1.891879 A
6518 A -24.635920 -21.680700 15.542480 A
6519 A -24.947900 -21.583360 14.651840 A
6520 A -24.231820 -21.898110 14.136730 A
6521 A -23.372410 -22.043110 14.704010 A
6522 A -23.796250 -22.914380 14.756450 A
6523 A -24.480090 -23.494710 15.060990 A
6524 B 24.664710 -23.750600 15.649770 B
6525 B 24.195920 -24.176320 14.908750 B
6526 B 23.785040 -24.349430 14.003850 B
6527 B 23.854930 24.825860 13.378280 B
6528 B 23.525320 23.933800 13.698210 B
6529 B 23.056160 24.201090 14.531880 B
6530 B 22.415060 24.037610 15.228080 B
6531 A 22.334040 23.359500 15.888870 A
6532 A 22.678800 22.629380 16.401780 A
6533 A 23.384540 22.593520 15.793690 A
6534 A 22.878020 22.737040 14.953190 A
6535 A 22.193770 22.747220 14.268230 A
6536 A 21.421710 23.171920 13.843930 A
6537 A 14.276100 -3.498120 2.955895 A
6538 A 13.561130 -2.875748 2.790593 A
6539 A 12.803370 -2.307175 3.019374 A
6540 A 12.002820 -1.897198 2.900640 A
6541 A 12.146940 -1.520766 3.812020 A
6542 A 11.887760 -0.696384 4.423559 A
6543 B 11.988480 -0.392949 5.343684 B
6544 B 12.722010 -0.461457 5.951215 B
6545 B 13.070480 0.378931 6.335256 B
6546 B 13.700140 0.732938 5.774176 B
6547 B 14.562640 0.375209 5.549829 B
6548 B 15.135250 -0.371427 5.623385 B
6549 B 15.029690 -1.127632 6.150724 B
6550 A 14.302840 -1.158212 6.788082 A
6551 A 13.621890 -1.062858 7.441103 A
6552 A 13.929830 -0.136177 7.359213 A
6553 A 14.090930 0.639648 6.853612 A
6554 A 14.418870 1.344183 6.323302 A
6555 A 14.344360 2.116534 5.748178 A
6556 A -22.629920 13.065830 -12.322960 A
6557 A -22.352010 13.650010 -13.003930 A
6558 A -22.315770 14.196130 -13.745610 A
6559 A -22.430070 15.136840 -13.967410 A
6560 A -22.511650 15.838480 -13.345490 A
6561 A -21.600960 16.092540 -13.485480 A
6562 B -20.662260 15.920800 -13.412510 B
6563 B -20.167310 15.116300 -13.428480 B
6564 B -19.488000 14.453230 -13.498360 B
6565 B -18.747300 13.829230 -13.348070 B
6566 B -18.115870 13.179500 -13.198620 B
6567 B -17.575160 12.987600 -14.014450 B
6568 B -17.837410 12.621770 -14.797950 B
6569 A -18.306450 11.746940 -14.918570 A
6570 A -19.125060 11.374200 -14.636820 A
6571 A -19.891190 11.687270 -14.100600 A
6572 A -20.251320 11.122090 -13.419800 A
6573 A -20.759020 10.952850 -12.578370 A
6574 A -21.506910 11.251480 -12.018480 A
6575 A 3.201897 16.433750 -5.509953 A
6576 A 2.336733 16.075240 -5.744031 A
6577 A 1.619581 15.587480 -5.308491 A
6578 A 2.080808 15.053800 -5.893082 A
6579 A 2.845996 14.454920 -6.121857 A
6580 A 3.422208 13.903640 -5.648466 A
6581 B 3.249043 14.039800 -4.710928 B
6582 B 2.404276 14.053530 -4.214341 B
6583 B 1.436189 13.929110 -4.280786 B
6584 B 0.475129 13.709950 -4.306059 B
6585 B -0.233463 13.369930 -3.685213 B
6586 B -0.078376 12.801430 -2.925184 B
6587 B 0.498300 12.428270 -2.315661 B
6588 A 1.295553 12.159880 -1.808752 A
6589 A 1.570518 12.290280 -0.883454 A
6590 A 1.301103 12.200070 0.044138 A
6591 A 0.649599 12.132830 0.732081 A
6592 A 0.025437 12.921960 0.958240 A
6593 A 0.079315 13.519650 1.745417 A
6594 A 18.819490 11.937210 -12.650140 A
6595 A 18.522420 12.322120 -13.447290 A
6596 A 17.742060 12.623610 -13.047780 A
6597 A 17.256380 11.714610 -13.279850 A
6598 A 17.549050 10.804610 -13.453870 A
6599 A 17.621250 9.974049 -13.759960 A
6600 B 17.249260 10.220570 -14.603620 B
6601 B 17.361590 9.321753 -14.974680 B
6602 B 17.347710 8.314314 -15.165080 B
6603 B 17.141470 7.974648 -14.251190 B
6604 B 17.518570 8.501751 -13.529130 B
6605 B 17.726530 9.184857 -12.794440 B
6606 B 17.086440 9.802280 -12.864900 B
6607 A 16.198080 9.457922 -12.265780 A
6608 A 16.352330 8.898195 -12.959640 A
6609 A 15.903980 8.689150 -13.794410 A
6610 A 15.119720 8.620387 -14.372670 A
6611 A 15.724410 9.380508 -14.726050 A
6612 A 16.031840 10.218380 -14.896950 A
6613 A -3.231185 -8.902836 -16.563320 A
6614 A -3.764819 -9.548231 -16.357670 A
6615 A -4.103075 -9.038894 -15.648660 A
6616 A -4.998344 -9.307348 -16.149240 A
6617 A -5.577119 -8.760042 -16.823370 A
6618 A -5.972663 -7.879808 -17.116070 A
6619 B -6.708383 -8.443563 -17.613120 B
6620 B -7.021312 -9.057707 -18.265540 B
6621 B -6.906034 -9.850658 -17.604430 B
6622 B -6.940799 -10.411920 -16.854120 B
6623 B -6.608507 -10.382620 -15.959120 B
6624 B -6.217155 -10.002060 -15.212720 B
6625 B -5.940926 -9.570869 -14.509740 B
6626 A -5.717590 -9.675141 -13.431290 A
6627 A -6.271078 -10.404020 -13.918860 A
6628 A -7.145617 -10.353270 -14.398000 A
6629 A -7.875018 -10.205720 -14.961990 A
6630 A -8.559485 -10.123950 -15.572970 A
6631 A -9.186145 -9.497638 -15.989690 A
6632 A 5.643618 21.669820 -8.596043 A
6633 A 5.989182 21.610300 -7.727736 A
6634 A 6.434137 20.867730 -7.364825 A
6635 A 7.251427 20.778800 -7.809679 A
6636 A 8.153365 21.018960 -8.353180 A
6637 A 8.993688 20.644420 -8.096326 A
6638 B 9.379917 20.093300 -8.758776 B
6639 B 9.988944 20.517840 -9.409388 B
6640 B 10.130390 21.250590 -8.837035 B
6641 B 9.791602 22.258810 -8.971140 B
6642 B 10.173010 22.286360 -9.813899 B
6643 B 10.065470 22.063640 -10.750750 B
6644 B 9.395529 21.316620 -10.830900 B
6645 A 8.480947 21.103810 -10.870040 A
6646 A 8.140307 20.594060 -10.178190 A
6647 A 8.042570 19.747190 -9.752524 A
6648 A 7.769061 18.929890 -10.276790 A
6649 A 7.168978 18.466680 -10.904940 A
6650 A 7.463987 17.858010 -11.552310 A
6651 A 3.276713 24.332660 -4.829043 A
6652 A 3.595295 23.451820 -4.991332 A
6653 A 4.084564 22.758430 -5.487561 A
6654 A 4.919446 22.438440 -5.888330 A
6655 A 5.653786 22.763290 -6.442084 A
6656 A 6.382460 23.093140 -6.899780 A
6657 B 6.633410 23.968600 -6.716681 B
6658 B 6.573552 24.685340 -6.039102 B
6659 B 6.894324 -24.734840 -5.269198 B
6660 B 7.549710 -24.386530 -4.680696 B
6661 B 8.355615 -23.858280 -4.880711 B
6662 B 9.139471 -23.486630 -4.404688 B
6663 B 9.460158 -23.721880 -3.550473 B
6664 A 10.315020 -23.988330 -3.213672 A
6665 A 11.009630 -23.591440 -2.673150 A
6666 A 10.852410 -23.382390 -1.758563 A
6667 A 9.985281 -23.433760 -1.317888 A
6668 A 9.273727 -23.937830 -1.667852 A
6669 A 8.489348 -24.444970 -1.990016 A
6670 A 21.500180 18.382160 -1.770172 A
6671 A 22.263700 18.946150 -1.873194 A
6672 A 23.187680 19.086470 -1.982198 A
6673 A 23.927510 18.555200 -2.188256 A
6674 A 23.276660 18.080570 -2.729174 A
6675 A 22.804260 18.186780 -3.584860 A
6676 B 22.374810 18.230950 -4.426507 B
6677 B 22.122440 18.910090 -4.954961 B
6678 B 22.222240 19.818520 -4.667939 B
6679 B 22.013410 20.633320 -4.265295 B
6680 B 22.612370 20.998260 -3.608279 B
6681 B 23.168700 20.228050 -3.310600 B
6682 B 23.455150 19.300080 -3.345096 B
6683 A 24.027360 18.747560 -3.829543 A
6684 A 24.711970 19.354690 -4.048694 A
6685 A -24.843630 19.998230 -3.488256 A
6686 A -24.463910 20.512490 -2.787887 A
6687 A -23.932420 21.320800 -2.737845 A
6688 A -23.968910 22.144650 -2.145319 A
6689 A -4.352516 -18.677220 9.401539 A
6690 A -4.520051 -19.131700 10.238840 A
6691 A -4.662540 -19.863230 10.868230 A
6692 A -4.897844 -20.724740 11.235490 A
6693 A -5.781072 -20.736330 11.600740 A
6694 A -6.419399 -20.065420 11.877860 A
6695 B -6.849659 -19.274700 11.517170 B
6696 B -7.302031 -18.682050 10.935760 B
6697 B -7.096610 -18.209900 10.142420 B
6698 B -6.427159 -17.798470 9.601844 B
6699 B -5.728332 -17.805930 8.929323 B
6700 B -4.797610 -17.552050 9.020921 B
6701 B -4.444659 -16.759310 9.465135 B
6702 A -4.182148 -16.107150 10.143430 A
6703 A -4.885310 -15.639890 10.577800 A
6704 A -5.276657 -15.166170 11.284400 A
6705 A -5.538160 -14.497130 11.909820 A
6706 A -5.764889 -13.704560 12.444170 A
6707 A -6.016289 -12.915960 12.965980 A
6708 A 0.967359 -11.093540 -18.727480 A
6709 A 0.128742 -10.757900 -18.258210 A
6710 A -0.208665 -10.487760 -17.403390 A
6711 A -0.452228 -11.095940 -16.700930 A
6712 A -0.839605 -11.727650 -16.086190 A
6713 A -0.164024 -12.395200 -16.298650 A
6714 B 0.507655 -11.899510 -16.889670 B
6715 B 1.473144 -11.556340 -16.768440 B
6716 B 1.778253 -12.424280 -17.035490 B
6717 B 2.389625 -13.154590 -17.117060 B
6718 B 2.201148 -13.925920 -17.647410 B
6719 B 2.089982 -13.648010 -18.569130 B
6720 B 1.832047 -13.818900 -19.441080 B
6721 A 2.693015 -14.194190 -19.451970 A
6722 A 2.486575 -14.562490 -18.563550 A
6723 A 2.100806 -15.151600 -17.841370 A
6724 A 2.292103 -15.176830 -16.928170 A
6725 A 1.893136 -15.042690 -16.046380 A
6726 A 1.038544 -14.605610 -15.871300 A
6727 A 22.732200 14.448560 -20.115880 A
6728 A 23.158950 14.966720 -20.824740 A
6729 A 23.775890 15.029420 -21.637520 A
6730 A 24.375050 15.018820 -22.373790 A
6731 A -24.662770 15.085050 -22.857080 A
6732 A -24.004790 14.601470 -23.468350 A
6733 B -23.027720 14.779230 -23.092140 B
6734 B -22.563970 15.284350 -23.726450 B
6735 B -22.731400 15.951360 -24.398280 B
6736 B -21.909730 16.348910 -23.941120 B
6737 B -21.598460 17.296840 -24.104650 B
6738 B -22.321060 17.292400 -24.792570 B
6739 B -23.314360 16.811430 -24.879440 B
6740 A -23.856570 17.353690 -24.309830 A
6741 A -24.410680 18.061290 -24.102210 A
6742 A -24.001770 18.849450 -24.460700 A
6743 A -24.892120 19.339490 -24.402920 A
6744 A 24.122050 19.614820 -24.195830 A
6745 A 23.495290 20.286210 -23.832110 A
6746 A 5.239628 -1.122227 6.466738 A
6747 A 5.998818 -1.276108 7.016287 A
6748 A 6.302873 -2.023686 7.598469 A
6749 A 6.470735 -2.240585 8.532226 A
6750 A 5.861661 -1.519918 8.802641 A
6751 A 5.123840 -0.925329 8.963345 A
6752 B 4.611934 -1.653156 9.126388 B
6753 B 4.430864 -2.736114 9.049663 B
6754 B 3.854772 -3.108762 8.336867 B
6755 B 4.198190 -3.703386 7.683331 B
6756 B 3.853168 -4.373901 6.991996 B
6757 B 3.014872 -4.792359 7.325009 B
6758 B 2.587738 -5.768023 7.451182 B
6759 A 2.231103 -6.199689 6.667864 A
6760 A 1.598728 -6.836172 6.611930 A
6761 A 0.819495 -6.190271 6.556907 A
6762 A 1.167068 -5.526579 7.095812 A
6763 A 1.226202 -5.423125 8.027550 A
6764 A 1.943056 -5.746753 8.754571 A
6765 A 3.625414 -3.573140 -7.234776 A
6766 A 4.351575 -4.279404 -7.375572 A
6767 A 5.262438 -4.563666 -7.336268 A
6768 A 6.014909 -4.831020 -6.873526 A
6769 A 6.269652 -4.749524 -5.867837 A
6770 A 6.420815 -4.992278 -4.938165 A
6771 B 6.783875 -5.028972 -4.043954 B
6772 B 7.730111 -5.300367 -3.843608 B
6773 B 8.615025 -4.959053 -3.528035 B
6774 B 8.777583 -4.078391 -3.810298 B
6775 B 8.485785 -3.264642 -4.317904 B
6776 B 7.876945 -2.679278 -4.791969 B
6777 B 8.086791 -1.830337 -5.195550 B
6778 A 8.455634 -0.935774 -5.341507 A
6779 A 9.048893 -1.245232 -6.068204 A
6780 A 9.376554 -1.401716 -6.993582 A
6781 A 8.970966 -2.139724 -7.493358 A
6782 A 8.401617 -2.935304 -7.619914 A
6783 A 8.164177 -3.867512 -7.623757 A
6784 A -1.485686 6.393297 -12.172900 A
6785 A -1.927455 6.351091 -13.030880 A
6786 A -2.343850 7.019487 -13.518160 A
6787 A -3.038684 7.457184 -14.008570 A
6788 A -3.694856 6.793462 -14.209760 A
6789 A -4.302574 6.194418 -14.536490 A
6790 B -4.895933 5.939355 -15.340750 B
6791 B -5.531130 6.181373 -15.980840 B
6792 B -5.653089 6.841352 -16.638020 B
6793 B -5.713952 7.504551 -17.380180 B
6794 B -5.628183 7.979363 -18.202830 B
6795 B -5.724729 8.446431 -18.985760 B
6796 B -5.098454 8.745072 -19.678780 B
6797 A -5.643616 9.633019 -19.791130 A
6798 A -6.376113 10.126670 -20.206900 A
6799 A -7.317437 10.183550 -20.195090 A
6800 A -7.304599 9.341483 -19.710550 A
6801 A -7.539036 8.447601 -19.931080 A
6802 A -7.358340 7.543574 -20.099220 A
6803 A -5.585970 6.795358 7.808919 A
6804 A -5.386180 7.585944 8.374488 A
6805 A -5.052915 8.460615 8.700716 A
6806 A -4.497831 8.500163 9.582118 A
6807 A -3.871263 8.563352 8.834206 A
6808 A -3.188267 7.932778 8.863695 A
6809 B -2.624508 7.299254 8.367552 B
6810 B -2.246373 6.449811 8.481855 B
6811 B -1.978938 6.020507 9.286748 B
6812 B -2.913775 5.617449 9.339598 B
6813 B -3.430993 4.882796 8.944927 B
6814 B -4.126621 4.717545 8.273186 B
6815 B -4.928651 4.278121 8.031373 B
6816 A -5.724285 4.247718 7.453964 A
6817 A -6.397616 4.500753 8.105405 A
6818 A -6.888937 4.897721 8.796606 A
6819 A -7.135461 4.861827 9.695824 A
6820 A -7.226873 4.079840 10.233850 A
6821 A -6.938130 3.252913 10.671450 A
6822 A 1.643833 -8.230623 10.510290 A
6823 A 1.334312 -8.685636 11.358650 A
6824 A 1.134450 -8.500486 12.267940 A
6825 A 1.560155 -8.358026 13.137660 A
6826 A 1.479563 -8.502149 14.069110 A
6827 A 0.839989 -8.128307 14.652990 A
6828 B 0.281382 -7.554238 15.173270 B
6829 B -0.522325 -7.080480 14.742540 B
6830 B -0.166915 -6.171723 14.496380 B
6831 B 0.742307 -6.018053 14.863670 B
6832 B 1.063260 -5.613365 15.773640 B
6833 B 0.904600 -6.194282 16.529730 B
6834 B -0.013230 -6.142391 16.787350 B
6835 A -0.909812 -5.804835 16.493350 A
6836 A -1.024366 -5.015183 16.016890 A
6837 A -0.154166 -4.554833 15.928230 A
6838 A 0.673368 -4.117616 16.092660 A
6839 A 1.466827 -3.708065 16.432650 A
6840 A 2.230329 -3.381702 16.968850 A
6841 A 4.658594 15.075510 -20.126320 A
6842 A 4.250850 14.842910 -19.279660 A
6843 A 4.019626 14.246220 -18.548960 A
6844 A 3.917134 13.464920 -17.954290 A
6845 A 4.303133 12.661060 -18.180940 A
6846 A 5.219859 12.409980 -18.078810 A
6847 B 5.940553 12.959440 -17.757010 B
6848 B 5.969740 13.915060 -17.856740 B
6849 B 6.249046 14.834730 -17.926020 B
6850 B 6.996271 14.931270 -17.308090 B
6851 B 7.851475 14.639410 -16.977380 B
6852 B 8.631899 14.060600 -16.877540 B
6853 B 9.079795 13.216890 -16.996340 B
6854 A 9.279185 13.047030 -17.956130 A
6855 A 8.902301 12.424760 -18.585320 A
6856 A 8.193605 12.220210 -19.228950 A
6857 A 7.418121 12.243850 -19.784070 A
6858 A 6.753090 12.639380 -20.427860 A
6859 A 5.931437 12.799690 -20.882940 A
6860 A -16.742280 22.671000 9.740767 A
6861 A -16.720920 23.057700 10.620860 A
6862 A -16.978800 23.745370 11.204380 A
6863 A -17.619260 23.522920 11.878780 A
6864 A -17.364590 22.637130 11.755040 A
6865 A -16.461980 22.443840 12.190780 A
6866 B -16.093910 21.672320 12.660240 B
6867 B -15.692260 21.083960 11.889390 B
6868 B -15.154980 21.178170 11.096550 B
6869 B -14.756700 21.878910 11.496810 B
6870 B -14.398460 21.460760 12.255520 B
6871 B -14.992810 21.383990 13.012530 B
6872 B -14.458300 21.461730 13.801730 B
6873 A -14.035860 22.256890 14.060500 A
6874 A -14.315050 22.000050 14.882330 A
6875 A -15.016650 22.077130 15.466420 A
6876 A -16.009940 22.000710 15.546380 A
6877 A -16.759700 22.651970 15.536790 A
6878 A -16.998800 23.521220 15.089490 A
6879 A -6.214333 21.162400 -8.491061 A
6880 A -5.643871 20.437870 -8.712319 A
6881 A -4.687118 20.414980 -8.844354 A
6882 A -4.600297 21.252710 -8.448466 A
6883 A -4.798110 22.177250 -8.195921 A
6884 A -5.492652 22.205260 -7.569247 A
6885 B -6.313688 22.460020 -7.041432 B
6886 B -6.689865 23.281120 -6.758028 B
6887 B -7.475729 23.847060 -6.776597 B
6888 B -8.020123 24.548330 -7.106047 B
6889 B -8.314913 -24.549090 -7.451439 B
6890 B -8.290955 -24.031310 -8.327806 B
6891 B -8.580690 -24.766910 -8.897954 B
6892 A -8.714942 24.332630 -9.455463 A
6893 A -8.328774 23.840500 -10.185840 A
6894 A -8.061769 22.976240 -10.573320 A
6895 A -7.727056 22.063770 -10.661810 A
6896 A -7.359241 21.315550 -11.132380 A
6897 A -7.320641 20.600220 -11.819170 A
6898 A 5.815247 4.974135 -9.489429 A
6899 A 5.301662 4.407841 -10.069990 A
6900 A 5.057106 3.627349 -10.559620 A
6901 A 4.710967 2.989999 -11.187570 A
6902 A 4.707753 3.040625 -12.134910 A
6903 A 4.590122 2.627744 -12.988890 A
6904 B 4.694657 1.774390 -13.383650 B
6905 B 5.139095 1.003377 -13.017670 B
6906 B 5.713465 0.309914 -12.674560 B
6907 B 5.408722 -0.014740 -11.826660 B
6908 B 5.274755 -0.382830 -10.954370 B
6909 B 4.922966 -0.504661 -10.053930 B
6910 B 4.739497 -0.986712 -9.254148 B
6911 A 4.174870 -1.779988 -9.215057 A
6912 A 4.121891 -2.634447 -9.599455 A
6913 A 4.041996 -3.502344 -9.979489 A
6914 A 3.866106 -4.469553 -10.045360 A
6915 A 3.105511 -4.903599 -9.651791 A
6916 A 2.362582 -5.046678 -9.044683 A
6917 A -22.753660 14.480850 7.522454 A
6918 A -22.707640 15.083400 8.270857 A
6919 A -22.900300 15.711950 8.931517 A
6920 A -23.350500 16.092440 9.711085 A
6921 A -23.676360 15.786390 10.575470 A
6922 A -24.311720 15.473210 11.193230 A
6923 B -24.271540 14.666120 10.691010 B
6924 B -24.789820 14.267260 10.003350 B
6925 B 24.209630 14.296190 9.774799 B
6926 B 23.293060 14.556760 9.653530 B
6927 B 22.452240 14.335660 10.041630 B
6928 B 22.873100 13.759190 10.694930 B
6929 B 23.390130 13.608770 11.449730 B
6930 A 24.311450 13.596590 11.778830 A
6931 A 24.248300 14.128070 12.591420 A
6932 A 23.892220 14.173320 13.484490 A
6933 A 22.979330 13.915210 13.593180 A
6934 A 22.165700 13.514460 13.284510 A
6935 A 21.646920 13.019060 12.706590 A
6936 A -22.079830 -21.229930 0.448117 A
6937 A -21.510200 -20.531100 0.918119 A
6938 A -21.310900 -19.953190 1.676448 A
6939 A -21.432480 -19.083900 2.037963 A
6940 A -21.209930 -18.341830 1.453824 A
6941 A -21.115590 -17.420690 1.357286 A
6942 B -21.989080 -17.053380 1.406254 B
6943 B -22.659390 -16.350550 1.144700 B
6944 B -23.540830 -16.457920 1.514337 B
6945 B -23.838920 -16.114820 2.400565 B
6946 B -23.649310 -15.984340 3.404967 B
6947 B -22.755490 -15.985100 3.758539 B
6948 B -22.017090 -16.581550 3.528820 B
6949 A -21.808420 -17.070880 2.790731 A
6950 A -21.797950 -17.896880 2.286170 A
6951 A -22.369230 -18.356350 1.649424 A
6952 A -22.950550 -18.142010 0.927351 A
6953 A -23.432080 -18.078760 0.044498 A
6954 A -23.709720 -17.605810 -0.760059 A
6955 A -8.700049 22.016750 -15.932800 A
6956 A -8.368159 22.858410 -16.119900 A
6957 A -7.992205 23.695230 -16.247560 A
6958 A -8.410232 24.531570 -16.463200 A
6959 A -8.571880 -24.799970 -15.741230 A
6960 A -8.019732 -24.168400 -16.238410 A
6961 B -7.641754 -23.379470 -16.605520 B
6962 B -7.409595 -23.633720 -17.466050 B
6963 B -6.706210 -23.529720 -18.151850 B
6964 B -5.934648 -24.048490 -18.509550 B
6965 B -5.241836 -24.500160 -18.973620 B
6966 B -5.104823 24.713460 -19.612090 B
6967 B -4.989923 23.835200 -19.359820 B
6968 A -4.413419 23.267000 -18.856780 A
6969 A -3.675114 22.519110 -18.814200 A
6970 A -3.797020 21.987100 -17.959510 A
6971 A -4.282265 21.577850 -17.174840 A
6972 A -3.576154 21.156250 -16.613350 A
6973 A -2.671006 21.141430 -16.134520 A
6974 A 14.035880 10.881540 -13.792460 A
6975 A 13.514840 10.937350 -12.973470 A
6976 A 12.970550 11.230100 -12.245860 A
6977 A 12.300850 11.327150 -11.563520 A
6978 A 11.566330 10.752700 -11.716770 A
6979 A 10.884570 10.102250 -11.864310 A
6980 B 10.106850 9.502999 -11.915010 B
6981 B 9.959383 9.788993 -11.039970 B
6982 B 10.110650 9.651756 -10.107850 B
6983 B 10.541860 9.625156 -9.217230 B
6984 B 11.227470 9.561750 -8.563890 B
6985 B 12.179460 9.739962 -8.656906 B
6986 B 13.041870 10.033330 -8.555490 B
6987 A 13.030150 10.616480 -9.301595 A
6988 A 12.343400 10.867330 -8.680472 A
6989 A 11.852280 10.908460 -7.839259 A
6990 A 11.782830 10.132810 -7.226176 A
6991 A 11.540090 9.334628 -6.804432 A
6992 A 11.011000 8.519466 -6.871591 A
6993 A -5.821051 -6.273668 6.801569 A
6994 A -5.181433 -7.024142 6.872850 A
6995 A -4.894417 -6.501057 6.176789 A
6996 A -4.950637 -5.814425 5.537503 A
6997 A -4.897349 -5.496662 4.668852 A
6998 A -5.033346 -5.182795 3.751871 A
6999 B -5.633413 -5.083603 2.970836 B
7000 B -5.693369 -4.897680 1.994268 B
7001 B -5.622406 -4.428490 1.139539 B
7002 B -6.053801 -3.616771 0.745755 B
7003 B -6.764627 -2.978786 0.615087 B
7004 B -7.472131 -2.586275 1.146982 B
7005 B -8.264349 -2.376936 1.663980 B
7006 A -8.006074 -2.127286 2.542467 A
7007 A -7.164923 -1.842669 2.191646 A
7008 A -6.894919 -0.993712 1.783260 A
7009 A -6.351777 -0.614582 2.545987 A
7010 A -6.253249 -1.410283 3.078453 A
7011 A -5.697693 -2.236624 3.120873 A
7012 A 3.442653 17.106290 17.861960 A
7013 A 2.982658 16.794800 18.632070 A
7014 A 2.532246 16.608990 19.460270 A
7015 A 1.702550 16.104670 19.490520 A
7016 A 0.818689 15.901540 19.229590 A
7017 A 0.128345 16.068150 18.584050 A
7018 B 0.308289 15.673190 17.665330 B
7019 B 0.660319 15.917160 16.774670 B
7020 B 1.040577 16.797080 16.876340 B
7021 B 1.153540 17.727010 16.678630 B
7022 B 2.039992 17.954640 16.372490 B
7023 B 2.728945 18.316220 15.759970 B
7024 B 2.976345 19.137280 15.334340 B
7025 A 3.854509 19.116760 14.971900 A
7026 A 4.569751 19.673250 15.250220 A
7027 A 4.605028 20.610940 14.951260 A
7028 A 3.808228 21.095130 14.714480 A
7029 A 3.048284 20.790320 14.119630 A
7030 A 2.166628 20.809140 14.588740 A
7031 A -14.020180 5.759818 17.730250 A
7032 A -13.599290 5.177095 17.081390 A
7033 A -13.259590 5.031229 16.231960 A
7034 A -13.298800 4.505049 15.415540 A
7035 A -12.852570 4.282439 14.581040 A
7036 A -12.746620 3.395278 14.232110 A
7037 B -12.457180 2.568061 14.615770 B
7038 B -12.322170 1.618629 14.577840 B
7039 B -11.814310 0.812128 14.534370 B
7040 B -11.411250 -0.055031 14.717240 B
7041 B -10.776280 -0.313591 14.044720 B
7042 B -10.468440 -0.203555 13.174080 B
7043 B -9.569068 -0.310148 12.793590 B
7044 A -8.684957 -0.668025 12.602740 A
7045 A -8.069699 -0.650434 13.346190 A
7046 A -7.605459 -1.433324 13.674370 A
7047 A -7.519562 -2.377819 13.968650 A
7048 A -7.551986 -3.099693 14.588500 A
7049 A -7.375261 -3.595795 15.399140 A
7050 A -0.755369 8.641023 -19.981460 A
7051 A -0.175811 7.867917 -20.127250 A
7052 A 0.112971 7.112648 -20.686220 A
7053 A 0.622508 7.043715 -21.471150 A
7054 A 0.959923 7.902392 -21.302150 A
7055 A 0.987523 8.747432 -20.869150 A
7056 B 1.714543 8.480792 -20.348370 B
7057 B 2.425984 7.904945 -20.038730 B
7058 B 3.258986 7.994682 -19.630220 B
7059 B 4.139832 8.368108 -19.711780 B
7060 B 3.810387 9.129852 -19.266720 B
7061 B 3.449935 9.975882 -18.984530 B
7062 B 3.472276 10.674160 -18.301230 B
7063 A 3.785133 10.067110 -17.565990 A
7064 A 4.486763 9.370389 -17.625950 A
7065 A 5.056181 8.683164 -17.991540 A
7066 A 5.319431 8.843438 -18.882840 A
7067 A 5.051044 9.595660 -19.438700 A
7068 A 5.172645 10.089820 -20.248990 A
7069 A 6.825077 6.162624 19.876280 A
7070 A 6.319125 5.536562 20.444270 A
7071 A 5.498411 5.170850 20.849370 A
7072 A 4.649986 4.981851 21.194260 A
7073 A 3.890097 4.935608 21.766050 A
7074 A 3.487601 5.546412 22.416620 A
7075 B 4.021168 6.285566 22.779830 B
7076 B 4.908998 6.220239 23.073200 B
7077 B 5.616477 6.569304 23.687720 B
7078 B 5.094149 6.558310 24.520820 B
7079 B 4.291724 6.024974 24.786300 B
7080 B 3.619466 5.901852 -24.427050 B
7081 B 3.128001 5.423120 24.817020 B
7082 A 3.120391 4.515570 -24.817280 A
7083 A 2.717645 3.848038 24.599180 A
7084 A 2.164157 3.574882 -24.628920 A
7085 A 1.846866 4.428047 -24.402320 A
7086 A 1.174302 5.040940 -24.667920 A
7087 A 1.154941 5.842444 24.741530 A
7088 A 20.665350 -9.344682 22.883090 A
7089 A 19.779300 -9.300358 23.288890 A
7090 A 19.566680 -8.400286 23.575130 A
7091 A 19.109700 -7.642458 23.922080 A
7092 A 18.196270 -7.857079 24.107520 A
7093 A 17.495920 -8.343455 23.656120 A
7094 B 17.249290 -8.372080 22.664460 B
7095 B 16.515800 -8.297966 22.091450 B
7096 B 15.672940 -7.902813 22.256250 B
7097 B 15.574610 -7.191800 22.911180 B
7098 B 15.214550 -6.863119 23.764910 B
7099 B 15.248430 -5.894696 23.385070 B
7100 B 15.123900 -5.575341 22.452670 B
7101 A 14.659930 -6.209204 21.807470 A
7102 A 14.097320 -5.776149 21.183080 A
7103 A 13.753400 -5.052510 20.578130 A
7104 A 14.441000 -4.557525 20.178620 A
7105 A 15.360160 -4.898931 20.103930 A
7106 A 16.264350 -5.159010 19.918010 A
7107 A -21.234610 -11.274140 -8.266474 A
7108 A -20.370130 -11.468050 -7.903435 A
7109 A -19.499790 -11.787870 -7.916486 A
7110 A -19.034600 -12.320430 -7.249145 A
7111 A -19.000790 -12.909440 -6.509770 A
7112 A -19.227920 -13.219990 -5.620279 A
7113 B -18.551200 -13.160960 -4.921700 B
7114 B -17.652560 -13.052360 -4.656972 B
7115 B -16.718950 -13.348250 -4.631546 B
7116 B -16.524950 -13.979480 -5.334895 B
7117 B -16.490390 -14.050330 -6.266280 B
7118 B -16.891280 -13.165740 -6.230839 B
7119 B -17.399930 -12.401920 -5.909096 B
7120 A -17.953010 -11.736470 -5.442573 A
7121 A -17.509700 -11.509530 -4.599699 A
7122 A -17.682360 -11.394230 -3.668016 A
7123 A -17.214480 -11.476900 -2.812874 A
7124 A -16.442780 -12.012610 -2.454200 A
7125 A -16.085320 -12.956770 -2.751147 A
7126 A -18.773000 -18.681600 12.070290 A
7127 A -19.317480 -19.474690 11.942030 A
7128 A -19.754960 -19.936530 11.281250 A
7129 A -19.701800 -20.006550 10.302860 A
7130 A -19.297620 -20.057960 9.450539 A
7131 A -18.533380 -19.835260 8.892574 A
7132 B -17.885270 -19.130050 8.936981 B
7133 B -18.266460 -18.684250 9.696335 B
7134 B -18.859990 -18.526920 10.454150 B
7135 B -19.280340 -18.185400 11.240520 B
7136 B -19.745640 -18.054670 12.065090 B
7137 B -20.019890 -17.929280 12.978240 B
7138 B -20.215590 -17.514050 13.800800 B
7139 A -19.752890 -16.925120 14.375490 A
7140 A -19.352030 -16.080860 14.629750 A
7141 A -19.317190 -15.189780 14.223160 A
7142 A -19.241880 -14.321230 13.835940 A
7143 A -18.814380 -13.819830 13.129280 A
7144 A -18.565380 -13.485050 12.268530 A
7145 A 16.828120 -12.349530 -9.811659 A
7146 A 17.165350 -13.202670 -10.132530 A
7147 A 17.629110 -14.054090 -10.203220 A
7148 A 18.100150 -14.833480 -10.547520 A
7149 A 18.821370 -14.980260 -11.150560 A
7150 A 19.770550 -15.118970 -11.262250 A
7151 B 20.736860 -14.972030 -11.166070 B
7152 B 21.450040 -14.339930 -11.178690 B
7153 B 22.152700 -13.695410 -11.267960 B
7154 B 22.676070 -12.904010 -11.145970 B
7155 B 21.946080 -12.283770 -11.034630 B
7156 B 20.999700 -12.464230 -11.195610 B
7157 B 20.210860 -12.949100 -10.877840 B
7158 A 19.858450 -12.996210 -9.983829 A
7159 A 19.676140 -12.915400 -9.034537 A
7160 A 19.373930 -12.720180 -8.139520 A
7161 A 18.790350 -11.927030 -8.187172 A
7162 A 18.471380 -11.062810 -8.441330 A
7163 A 18.329000 -10.393040 -9.115525 A
7164 A -2.388473 -23.825790 -9.853255 A
7165 A -2.554002 -24.446260 -9.150373 A
7166 A -2.890994 24.868700 -8.452367 A
7167 A -3.126123 24.288250 -7.694594 A
7168 A -2.744142 24.008040 -6.878119 A
7169 A -2.013102 23.511090 -6.561804 A
7170 B -1.043336 23.581650 -6.659533 B
7171 B -0.946810 23.778300 -7.616155 B
7172 B -1.127011 23.426160 -8.462964 B
7173 B -1.973379 23.658880 -8.804029 B
7174 B -2.751980 24.019390 -9.225737 B
7175 B -3.303665 24.634180 -9.752959 B
7176 B -2.743299 24.488250 -10.538420 B
7177 A -1.855368 24.245650 -10.460190 A
7178 A -1.138146 23.720150 -10.164060 A
7179 A -0.524831 23.038700 -9.970755 A
7180 A -0.047299 23.575730 -9.300748 A
7181 A -0.402614 24.475120 -9.338291 A
7182 A -0.485626 -24.596770 -9.761628 A
7183 A -21.557620 -9.230948 7.342794 A
7184 A -21.419520 -8.370683 7.736143 A
7185 A -20.997620 -7.631649 8.207445 A
7186 A -20.155630 -7.484728 8.630069 A
7187 A -19.426350 -8.006755 9.008953 A
7188 A -18.785270 -8.715819 9.234982 A
7189 B -17.896630 -8.884764 9.586250 B
7190 B -17.346910 -8.095268 9.683716 B
7191 B -17.246370 -7.170507 9.936176 B
7192 B -17.518980 -6.387888 10.370320 B
7193 B -18.398210 -6.157825 10.732460 B
7194 B -17.802980 -6.381233 11.511900 B
7195 B -17.577030 -7.219443 11.933170 B
7196 A -17.067190 -8.039017 12.123470 A
7197 A -16.446250 -8.601117 11.546640 A
7198 A -15.928630 -8.484088 10.706790 A
7199 A -15.353390 -7.847125 10.247150 A
7200 A -14.776850 -7.655900 10.985370 A
7201 A -14.630170 -7.008358 11.678790 A
7202 A 14.006100 8.410820 22.780670 A
7203 A 13.820280 8.151867 23.820600 A
7204 A 14.130030 7.155972 23.530330 A
7205 A 13.633620 6.839431 22.588620 A
7206 A 13.882350 7.607085 21.945830 A
7207 A 13.317330 8.021396 21.144990 A
7208 B 12.549240 8.673284 21.193780 B
7209 B 11.718470 9.050656 21.389130 B
7210 B 10.929950 8.825044 20.926120 B
7211 B 10.535600 8.845713 20.026570 B
7212 B 10.956160 8.851364 19.169090 B
7213 B 11.744520 8.293766 19.080590 B
7214 B 11.770460 7.338965 18.853320 B
7215 A 12.016380 6.607187 18.368570 A
7216 A 11.810170 5.679659 18.190530 A
7217 A 12.187870 4.801528 18.041910 A
7218 A 13.031170 4.414927 18.164740 A
7219 A 13.386740 3.865965 18.923330 A
7220 A 13.318020 4.080914 19.887530 A
7221 A 9.157163 -4.930688 4.813459 A
7222 A 9.499984 -5.309747 4.015653 A
7223 A 9.674635 -5.163082 3.105280 A
7224 A 9.815928 -5.533185 2.249983 A
7225 A 10.217690 -6.322809 1.886600 A
7226 A 10.026010 -6.630307 2.740345 A
7227 B 9.368029 -7.207500 3.109064 B
7228 B 8.738809 -7.086427 3.805281 B
7229 B 7.932836 -6.596319 3.657763 B
7230 B 7.232884 -6.416772 3.058831 B
7231 B 6.811842 -6.673042 2.304860 B
7232 B 5.837082 -6.615757 2.128250 B
7233 B 5.623609 -7.515075 2.475941 B
7234 A 6.152095 -8.014045 3.166295 A
7235 A 6.484952 -8.258922 4.006105 A
7236 A 7.156132 -8.093615 4.649362 A
7237 A 8.105064 -8.264895 4.820510 A
7238 A 8.957039 -8.812482 4.764377 A
7239 A 9.171556 -8.599208 3.870116 A
7240 A 21.095130 17.247640 -14.821540 A
7241 A 21.398330 16.749510 -14.027950 A
7242 A 21.251260 17.100260 -13.154490 A
7243 A 20.570820 17.169040 -12.511030 A
7244 A 19.835180 16.610880 -12.316910 A
7245 A 19.129290 15.991620 -12.498650 A
7246 B 18.985530 15.023900 -12.562520 B
7247 B 19.488590 14.171110 -12.470710 B
7248 B 20.099250 14.757470 -12.948580 B
7249 B 20.241940 15.453880 -13.574150 B
7250 B 20.199870 16.289530 -14.031260 B
7251 B 19.250630 16.500780 -14.154020 B
7252 B 18.533940 15.888730 -14.066650 B
7253 A 18.146720 15.929650 -14.951150 A
7254 A 18.744350 15.791170 -15.712550 A
7255 A 19.469350 16.061510 -16.331310 A
7256 A 19.932750 16.080700 -17.167720 A
7257 A 20.070830 15.502740 -17.912030 A
7258 A 19.756500 14.661480 -18.292170 A
7259 A 2.537089 23.859100 -1.721453 A
7260 A 3.300078 23.253540 -1.598326 A
7261 A 4.084403 23.764180 -1.550415 A
7262 A 4.640388 24.464370 -1.265875 A
7263 A 4.915704 -24.775900 -0.625887 A
7264 A 4.609818 24.457440 -0.016315 A
7265 B 4.396520 23.499870 -0.073865 B
7266 B 4.169573 22.596260 -0.181447 B
7267 B 3.802051 21.893670 0.302115 B
7268 B 3.531976 22.072390 1.258234 B
7269 B 3.863366 22.969730 1.305501 B
7270 B 4.588879 23.571040 1.441838 B
7271 B 5.301926 24.112410 1.771835 B
7272 A 5.833531 24.542680 2.458717 A
7273 A 5.934387 -24.827150 3.243554 A
7274 A 5.602796 -24.099980 3.796986 A
7275 A 4.778446 -23.562470 3.692054 A
7276 A 4.167233 -23.495450 2.996368 A
7277 A 3.822414 -23.041440 2.215448 A
7278 A -1.496803 7.852103 23.819830 A
7279 A -1.845323 8.658082 23.520460 A
7280 A -2.481005 9.364540 23.329400 A
7281 A -3.187160 9.805240 22.859170 A
7282 A -3.525772 10.206770 22.083930 A
7283 A -2.922066 10.734550 21.519470 A
7284 B -2.093345 10.263620 21.268250 B
7285 B -1.647151 9.444054 21.125510 B
7286 B -2.230701 8.680711 21.251640 B
7287 B -3.135672 8.346158 21.311110 B
7288 B -4.035890 8.349814 21.667760 B
7289 B -4.648184 8.285425 22.422800 B
7290 B -5.459480 8.649037 22.787930 B
7291 A -5.794445 9.534598 22.873470 A
7292 A -5.369532 10.417890 22.943120 A
7293 A -4.517210 10.837920 22.885810 A
7294 A -3.595459 11.067790 22.782460 A
7295 A -2.738088 11.527440 22.852380 A
7296 A -1.937067 11.670940 23.394520 A
7297 A -19.524410 -10.181270 24.755240 A
7298 A -20.329570 -10.577100 24.424940 A
7299 A -20.326780 -10.880860 23.552370 A
7300 A -20.375570 -11.422010 22.801840 A
7301 A -20.541790 -12.072960 22.058320 A
7302 A -21.371010 -11.662590 21.557180 A
7303 B -22.197320 -11.504520 20.998950 B
7304 B -22.159130 -10.788370 21.908500 B
7305 B -21.851350 -10.096850 22.555190 B
7306 B -20.895900 -10.234630 22.398010 B
7307 B -21.062760 -10.042330 21.425520 B
7308 B -20.292150 -9.387565 21.101010 B
7309 B -19.680160 -9.110120 20.487310 B
7310 A -20.035680 -9.077612 19.600400 A
7311 A -19.804000 -8.876433 18.698440 A
7312 A -19.118960 -9.489528 18.242490 A
7313 A -18.178470 -9.178468 18.240290 A
7314 A -18.492340 -8.480072 17.748330 A
7315 A -18.875380 -7.624725 17.836520 A
7316 A 22.941090 6.661928 -15.516080 A
7317 A 22.282070 6.251209 -14.967830 A
7318 A 21.581760 5.611181 -14.931910 A
7319 A 20.865170 5.293206 -15.485850 A
7320 A 21.278620 5.228705 -16.336350 A
7321 A 21.787410 4.870100 -17.048440 A
7322 B 22.222290 4.365921 -17.763950 B
7323 B 22.590220 3.868559 -17.046360 B
7324 B 22.601910 3.784609 -16.089320 B
7325 B 22.228180 3.868753 -15.212380 B
7326 B 21.534330 3.514088 -14.657720 B
7327 B 21.144010 2.712145 -14.293940 B
7328 B 21.152810 1.914773 -14.818950 B
7329 A 20.627250 1.355062 -15.400670 A
7330 A 20.046210 0.960895 -16.079230 A
7331 A 19.415190 0.539604 -16.677770 A
7332 A 18.642360 -0.023038 -16.708650 A
7333 A 17.984350 -0.727337 -16.712460 A
7334 A 17.302470 -1.251143 -16.277460 A
7335 A -1.058731 9.498093 -5.060600 A
7336 A -2.037601 9.526445 -5.128660 A
7337 A -2.985683 9.559085 -5.373435 A
7338 A -3.766135 9.382328 -4.820631 A
7339 A -4.161175 9.819986 -4.065201 A
7340 A -4.594922 10.490110 -3.531356 A
7341 B -4.804687 10.877840 -2.683942 B
7342 B -3.839744 10.986960 -2.716444 B
7343 B -2.879663 11.174460 -2.826847 B
7344 B -2.374901 10.402800 -3.125637 B
7345 B -1.805575 10.972810 -2.625456 B
7346 B -1.942334 11.714520 -2.010124 B
7347 B -1.809880 12.664390 -2.032134 B
7348 A -1.665929 13.312090 -2.722510 A
7349 A -1.410084 13.561470 -3.609002 A
7350 A -1.060238 13.893490 -4.429804 A
7351 A -0.818152 14.601100 -5.046852 A
7352 A -1.236835 15.003660 -5.816830 A
7353 A -1.820903 15.402700 -6.475917 A
7354 A -13.169870 5.181131 7.629147 A
7355 A -13.436310 4.879490 6.707913 A
7356 A -13.643210 4.861021 5.774124 A
7357 A -14.390430 5.432702 5.652404 A
7358 A -14.967720 6.025071 6.107053 A
7359 A -15.494230 6.637932 6.618115 A
7360 B -15.759960 7.113449 7.397817 B
7361 B -16.217860 7.332578 8.250851 B
7362 B -16.801060 7.093304 8.992465 B
7363 B -17.238180 6.502279 9.686829 B
7364 B -17.325550 5.637135 9.270806 B
7365 B -17.264820 5.427239 8.322348 B
7366 B -17.440820 5.374848 7.360883 B
7367 A -17.270480 5.427179 6.429014 A
7368 A -17.040830 5.818168 5.579182 A
7369 A -17.354220 6.682425 5.815468 A
7370 A -18.252810 6.910833 5.908247 A
7371 A -19.175350 7.110394 5.743952 A
7372 A -20.011520 7.490409 5.511198 A
7373 A 22.722870 22.005640 6.207378 A
7374 A 23.277090 21.479510 6.776810 A
7375 A 24.039180 21.179010 7.308215 A
7376 A -24.950280 20.965070 7.487009 A
7377 A -24.009790 21.012230 7.453521 A
7378 A -23.702540 21.063900 6.574096 A
7379 B -23.857850 21.110590 5.651847 B
7380 B -24.390360 20.759540 4.908889 B
7381 B 24.946700 19.984440 4.927045 B
7382 B -24.888370 19.065910 5.153353 B
7383 B -24.889660 19.065250 6.110827 B
7384 B -24.361870 19.469920 6.814632 B
7385 B -24.270900 18.742510 7.448609 B
7386 A -24.300770 17.836600 7.083572 A
7387 A -24.382200 17.509930 6.157882 A
7388 A -24.426680 16.771320 5.522742 A
7389 A -24.740380 16.172820 4.877729 A
7390 A -24.866000 15.508690 4.202024 A
7391 A -24.786880 15.248000 3.241158 A
7392 A -2.710381 15.879870 21.122060 A
7393 A -2.167812 15.421120 20.523780 A
7394 A -1.989035 15.773440 19.623930 A
7395 A -2.327749 16.200760 18.870120 A
7396 A -2.363232 16.969400 18.278110 A
7397 A -2.770761 17.631790 17.715220 A
7398 B -3.084019 17.776760 16.843090 B
7399 B -3.304919 17.706040 15.914510 B
7400 B -2.471429 17.954640 15.592890 B
7401 B -1.600592 17.882990 15.200410 B
7402 B -0.810996 18.418530 14.884350 B
7403 B -0.593880 18.469140 15.832320 B
7404 B -0.686395 18.855270 16.711980 B
7405 A -1.198457 18.632600 17.481640 A
7406 A -1.514723 18.971210 18.311510 A
7407 A -1.575543 19.166230 19.230050 A
7408 A -1.766835 19.686040 20.039930 A
7409 A -2.322835 20.259750 20.573140 A
7410 A -2.864022 20.648410 21.275650 A
7411 A -13.098990 -16.328730 16.048590 A
7412 A -12.673790 -16.747890 15.348930 A
7413 A -12.450480 -16.956340 14.452940 A
7414 A -12.097780 -17.416760 13.666570 A
7415 A -11.262180 -17.657730 13.244180 A
7416 A -10.431300 -17.185070 13.310900 A
7417 B -9.857811 -16.406400 13.404050 B
7418 B -9.741886 -15.688430 14.097490 B
7419 B -10.122930 -14.842760 14.317920 B
7420 B -11.050840 -14.777750 14.273850 B
7421 B -10.762890 -15.372840 13.488200 B
7422 B -10.443940 -15.722280 12.667190 B
7423 B -9.793259 -15.322110 12.038470 B
7424 A -9.525677 -15.791790 11.197370 A
7425 A -10.443780 -15.557640 11.102480 A
7426 A -11.331010 -15.321260 10.949510 A
7427 A -10.830700 -14.508580 10.710900 A
7428 A -10.272280 -13.797170 10.328860 A
7429 A -9.604490 -13.492980 9.724484 A
7430 A 13.813210 19.256330 -13.854330 A
7431 A 13.250940 18.928530 -13.149460 A
7432 A 12.959720 18.331260 -12.442950 A
7433 A 12.316600 17.673260 -12.199890 A
7434 A 11.523000 17.314220 -11.812630 A
7435 A 10.572520 17.270410 -11.675500 A
7436 B 9.922848 16.603720 -11.377020 B
7437 B 9.038947 16.306390 -11.132730 B
7438 B 8.651916 16.473810 -10.244200 B
7439 B 8.219294 16.232430 -9.431794 B
7440 B 8.168051 15.327670 -9.146792 B
7441 B 7.720517 14.593720 -8.725815 B
7442 B 6.773022 14.576520 -8.773309 B
7443 A 6.710176 14.685750 -9.760949 A
7444 A 7.551878 14.157550 -10.172560 A
7445 A 8.039733 13.336500 -9.961214 A
7446 A 8.618958 12.497840 -10.122890 A
7447 A 8.855066 12.291950 -11.037420 A
7448 A 9.049765 11.936430 -11.977480 A
7449 A -12.726180 3.084205 18.130360 A
7450 A -13.298740 2.378033 18.443930 A
7451 A -14.168120 1.992250 18.312080 A
7452 A -15.011420 2.294700 18.040370 A
7453 A -15.525240 2.972372 17.575270 A
7454 A -15.924930 3.597174 17.021000 A
7455 B -16.847210 3.620388 16.858730 B
7456 B -17.160930 3.108188 16.126630 B
7457 B -16.487560 2.457487 16.317090 B
7458 B -15.690700 1.920086 16.263030 B
7459 B -15.132240 1.146024 16.355820 B
7460 B -14.644380 0.575791 15.769540 B
7461 B -14.296710 -0.093424 15.165310 B
7462 A -13.867310 -0.713577 14.590230 A
7463 A -13.350670 -1.360003 14.092420 A
7464 A -12.797940 -2.073884 13.756520 A
7465 A -11.989970 -2.262919 13.278180 A
7466 A -11.312430 -2.604634 12.714700 A
7467 A -10.569270 -3.123173 12.341810 A
7468 A -10.132960 21.172520 -9.537850 A
7469 A -10.489440 20.700140 -10.311830 A
7470 A -10.998000 20.104430 -10.856450 A
7471 A -11.952770 19.950130 -10.605770 A
7472 A -12.820430 20.351380 -10.716450 A
7473 A -13.694810 20.334920 -10.348340 A
7474 B -14.311470 20.958320 -9.997014 B
7475 B -14.619590 21.553670 -9.306491 B
7476 B -14.097010 22.195890 -9.741970 B
7477 B -13.604340 22.953010 -10.094060 B
7478 B -13.708160 23.862540 -9.808813 B
7479 B -13.891270 23.463800 -8.984238 B
7480 B -14.795190 23.623910 -8.558225 B
7481 A -15.681550 24.033290 -8.759481 A
7482 A -16.387920 24.583540 -9.037848 A
7483 A -16.691490 -24.519600 -9.458617 A
7484 A -16.947950 -24.223050 -10.355720 A
7485 A -16.787950 -24.240820 -11.303710 A
7486 A -16.961240 -24.287100 -12.240250 A
7487 A 4.982977 -8.303765 -24.508120 A
7488 A 4.210474 -8.608839 -24.009400 A
7489 A 3.753540 -9.042967 -23.294480 A
7490 A 3.098471 -9.613656 -22.881120 A
7491 A 2.179491 -9.664829 -22.593810 A
7492 A 1.304639 -9.524285 -22.328850 A
7493 B 0.947139 -8.657369 -22.287920 B
7494 B 0.546533 -8.195710 -23.033790 B
7495 B 0.350950 -7.953948 -23.945810 B
7496 B 0.371389 -8.527150 -24.734680 B
7497 B 0.831589 -8.910344 24.407160 B
7498 B 1.499400 -9.023024 23.732010 B
7499 B 2.205066 -8.658694 23.176280 B
7500 A 2.876001 -8.276750 22.614390 A
7501 A 3.690490 -7.806597 22.467100 A
7502 A 4.442541 -7.562719 23.063300 A
7503 A 4.246262 -8.015511 23.894030 A
7504 A 4.555708 -8.744016 24.460010 A
7505 A 4.426089 -9.485585 -24.903760 A
7506 A 23.433780 10.097680 13.248890 A
7507 A 23.731010 10.915680 12.980140 A
7508 A 23.968480 11.724830 12.836270 A
7509 A 23.777500 12.848800 12.795020 A
7510 A 23.167970 12.394340 13.293980 A
7511 A 23.841720 12.813210 13.945090 A
7512 B 24.040540 13.332870 14.733590 B
7513 B 23.775780 13.123940 15.672460 B
7514 B 23.295600 12.341340 15.756670 B
7515 B 23.215000 11.393330 15.602330 B
7516 B 22.937040 10.518370 15.414120 B
7517 B 22.980960 9.553329 15.495690 B
7518 B 23.871010 9.014748 15.541300 B
7519 A 24.544580 9.586136 15.919010 A
7520 A 24.674650 10.283600 16.555600 A
7521 A -24.840860 11.101120 16.253920 A
7522 A -24.669790 11.200800 15.326210 A
7523 A -24.317880 10.832670 14.465480 A
7524 A -23.907690 10.051090 14.181450 A
7525 A 11.483160 12.715650 -19.757810 A
7526 A 10.754020 12.467640 -20.324170 A
7527 A 10.399380 12.842060 -21.120900 A
7528 A 9.922214 13.098150 -21.901140 A
7529 A 10.653610 13.690760 -22.034390 A
7530 A 11.180030 14.487020 -21.965160 A
7531 B 11.389570 15.434140 -21.708060 B
7532 B 11.286050 15.586430 -20.786570 B
7533 B 11.958770 16.342730 -20.741460 B
7534 B 12.403710 16.994150 -21.209350 B
7535 B 12.952220 17.775400 -21.405900 B
7536 B 13.864910 17.580180 -21.242650 B
7537 B 13.948740 16.955710 -20.505280 B
7538 A 14.328820 16.438430 -19.801770 A
7539 A 14.928040 15.992590 -19.223700 A
7540 A 15.290710 15.370290 -19.855740 A
7541 A 16.066400 15.636390 -20.350990 A
7542 A 16.650900 16.299850 -19.980530 A
7543 A 17.327430 16.884660 -19.572380 A
7544 A -11.626700 -4.452909 19.159980 A
7545 A -11.742310 -3.728978 19.806430 A
7546 A -11.769840 -3.226563 20.646040 A
7547 A -12.368700 -3.086593 21.382590 A
7548 A -13.133760 -3.501830 20.947540 A
7549 A -13.447300 -3.819491 20.097460 A
7550 B -13.475210 -3.546150 19.157390 B
7551 B -13.483580 -2.606385 19.300550 B
7552 B -13.330220 -1.721834 19.694890 B
7553 B -13.296330 -0.867326 20.140910 B
7554 B -13.805220 -0.550130 20.954080 B
7555 B -14.604500 -0.836051 21.464610 B
7556 B -15.375900 -1.428732 21.312060 B
7557 A -16.159830 -1.817163 20.913990 A
7558 A -16.745700 -2.353149 21.449050 A
7559 A -17.039970 -3.000660 22.079030 A
7560 A -17.133900 -3.822482 22.508250 A
7561 A -17.113050 -4.647214 22.945410 A
7562 A -16.716350 -5.495110 23.087220 A
7563 A -6.097158 18.043560 -3.355527 A
7564 A -7.002493 17.910830 -2.543968 A
7565 A -6.836205 17.601320 -1.487372 A
7566 A -5.899470 17.095930 -1.956410 A
7567 A -6.186913 16.042360 -1.939232 A
7568 A -6.434210 15.655000 -1.149322 A
7569 B -6.876657 15.161790 -0.411949 B
7570 B -7.691625 15.401490 -0.016999 B
7571 B -8.339292 16.155270 -0.275628 B
7572 B -8.883801 16.844350 -0.794844 B
7573 B -9.060494 17.730550 -0.723043 B
7574 B -9.332931 18.567430 -0.353407 B
7575 B -8.582911 18.860150 0.091174 B
7576 A -7.631386 18.936210 0.189763 A
7577 A -6.982719 18.238990 0.165290 A
7578 A -6.352516 17.467940 0.179670 A
7579 A -5.520755 17.808850 0.536875 A
7580 A -4.574079 17.985730 0.543512 A
7581 A -3.640987 18.114450 0.414764 A
7582 A -16.920630 -2.601865 -4.845261 A
7583 A -16.499600 -3.433686 -4.593655 A
7584 A -16.244600 -4.373014 -4.619682 A
7585 A -16.160940 -5.324842 -4.393471 A
7586 A -16.086090 -6.126869 -3.894821 A
7587 A -16.032690 -6.535078 -3.054095 A
7588 B -15.955010 -6.722057 -2.156350 B
7589 B -15.709720 -6.431389 -1.267965 B
7590 B -15.083100 -5.864038 -0.747710 B
7591 B -14.413170 -5.688433 -1.456366 B
7592 B -14.280010 -5.553897 -2.371684 B
7593 B -13.539070 -5.619996 -3.020117 B
7594 B -13.006300 -6.391922 -3.249583 B
7595 A -12.609870 -7.081074 -2.683179 A
7596 A -13.121430 -7.864056 -2.398457 A
7597 A -12.824950 -8.606250 -2.942089 A
7598 A -12.251970 -9.366014 -3.180606 A
7599 A -11.495520 -9.949987 -2.904943 A
7600 A -10.793630 -10.539940 -2.547168 A
7601 A -7.307616 14.100730 11.789280 A
7602 A -6.622374 13.535330 11.455980 A
7603 A -6.331110 12.600780 11.302770 A
7604 A -5.594030 11.905810 11.474640 A
7605 A -4.720051 11.425440 11.456260 A
7606 A -4.365652 11.271850 12.339150 A
7607 B -4.683801 11.654870 13.190500 B
7608 B -5.601436 11.705530 13.381840 B
7609 B -6.555468 11.499440 13.229530 B
7610 B -6.416168 12.400170 13.039720 B
7611 B -5.939196 13.197370 12.802290 B
7612 B -5.332019 13.907710 13.084020 B
7613 B -5.011166 14.452380 13.804130 B
7614 A -4.679478 14.929940 14.579530 A
7615 A -3.859293 15.016930 15.099990 A
7616 A -2.954036 14.738750 15.067590 A
7617 A -2.445773 14.177890 14.457610 A
7618 A -2.048580 13.597130 13.814630 A
7619 A -1.749390 13.075460 13.063950 A
7620 A 15.325470 15.522140 24.012360 A
7621 A 16.218730 15.307540 23.792390 A
7622 A 17.033630 15.718970 23.498220 A
7623 A 17.544720 15.695870 22.646750 A
7624 A 17.821190 16.398950 21.978970 A
7625 A 17.508750 17.285590 21.952360 A
7626 B 17.981830 17.760530 22.613020 B
7627 B 18.225210 17.679140 23.521870 B
7628 B 18.885120 17.242930 24.110010 B
7629 B 19.823290 17.305810 24.305290 B
7630 B 20.786260 17.374340 24.250530 B
7631 B 21.715400 17.562890 24.134530 B
7632 B 22.290850 18.205200 23.725700 B
7633 A 22.307250 18.693390 22.888270 A
7634 A 22.114520 18.819680 21.899660 A
7635 A 21.461970 18.106030 21.854850 A
7636 A 20.729390 17.457030 21.877810 A
7637 A 19.849910 17.103620 22.193760 A
7638 A 18.987960 17.054840 22.683060 A
7639 A -14.774930 12.744940 -3.356801 A
7640 A -14.194620 12.194460 -3.857622 A
7641 A -13.684390 11.431970 -4.124456 A
7642 A -13.298290 10.550650 -4.044082 A
7643 A -13.488470 10.107290 -3.200581 A
7644 A -13.514450 10.318610 -2.267969 A
7645 B -13.596450 10.890990 -1.544815 B
7646 B -13.775180 11.685590 -1.091362 B
7647 B -13.735990 12.292530 -0.363057 B
7648 B -13.518330 11.601300 0.279266 B
7649 B -13.660930 11.079830 1.053902 B
7650 B -13.000680 11.741110 1.405292 B
7651 B -12.437730 12.455250 1.078181 B
7652 A -11.819820 13.047760 0.665738 A
7653 A -11.630670 13.579250 -0.088130 A
7654 A -11.560140 13.503750 -1.044438 A
7655 A -11.771140 13.540030 -1.958826 A
7656 A -12.690920 13.581450 -2.200965 A
7657 A -13.353330 12.930470 -2.542385 A
7658 A 22.891050 19.740440 10.584340 A
7659 A 22.617710 19.304420 11.357650 A
7660 A 22.300310 18.642630 11.947720 A
7661 A 21.671700 18.220330 12.517410 A
7662 A 21.710100 17.504320 13.159180 A
7663 A 21.955640 16.745710 13.667730 A
7664 B 22.899920 16.929230 13.697510 B
7665 B 22.868590 17.019120 12.703590 B
7666 B 22.554560 16.855920 11.782950 B
7667 B 22.663540 16.242320 11.072060 B
7668 B 23.454170 15.721220 11.145300 B
7669 B 24.233310 15.588730 11.693800 B
7670 B 24.937440 14.974940 11.917620 B
7671 A -24.612590 14.112260 12.161420 A
7672 A -23.920360 13.716860 12.718910 A
7673 A -23.081290 13.270810 12.594290 A
7674 A -22.599820 13.812980 11.987060 A
7675 A -22.507860 14.463160 11.309220 A
7676 A -22.224990 14.301450 10.413470 A
7677 A -19.575350 12.512520 -8.861948 A
7678 A -20.063010 12.014210 -8.132949 A
7679 A -20.393220 11.976710 -7.192717 A
7680 A -20.929290 11.286010 -6.752014 A
7681 A -21.801290 10.904880 -6.502958 A
7682 A -22.714620 10.939260 -6.164826 A
7683 B -23.048050 11.729210 -5.685705 B
7684 B -23.152990 12.566090 -6.094321 B
7685 B -23.521760 13.408170 -6.315784 B
7686 B -23.237280 13.907530 -7.112838 B
7687 B -23.148180 14.415830 -7.914579 B
7688 B -22.410360 15.025630 -8.116358 B
7689 B -21.540560 15.352310 -7.825950 B
7690 A -21.016720 15.164410 -7.052172 A
7691 A -20.347430 15.419440 -6.366996 A
7692 A -20.300020 14.940280 -5.530411 A
7693 A -19.944880 14.261640 -4.906909 A
7694 A -19.890340 13.606710 -4.201205 A
7695 A -19.893230 12.853270 -3.675125 A
7696 A -15.629610 -21.458090 1.654261 A
7697 A -15.945720 -21.264070 0.715323 A
7698 A -15.737460 -20.814950 -0.118875 A
7699 A -14.864640 -21.188440 -0.146385 A
7700 A -14.104230 -21.163710 0.397394 A
7701 A -13.765490 -21.924430 0.793921 A
7702 B -14.350340 -22.716520 1.004139 B
7703 B -14.873530 -23.527850 1.324204 B
7704 B -14.808880 -24.236180 1.921580 B
7705 B -15.009660 -24.576450 2.732849 B
7706 B -14.475100 -24.234500 3.414514 B
7707 B -14.242450 -24.729240 4.240407 B
7708 B -14.997530 -24.331530 4.577419 B
7709 A -15.720210 -23.710700 4.676123 A
7710 A -16.269870 -22.990470 4.254952 A
7711 A -15.981640 -22.826460 3.282240 A
7712 A -15.534400 -22.022830 3.625120 A
7713 A -15.480810 -21.596060 4.455509 A
7714 A -15.741130 -21.425520 5.379106 A
7715 A 19.269620 -18.969530 12.335110 A
7716 A 18.675800 -19.467350 12.917500 A
7717 A 18.251000 -20.214830 13.364560 A
7718 A 18.235710 -21.210460 13.252030 A
7719 A 18.361180 -21.950430 12.643550 A
7720 A 18.698270 -22.829940 12.455510 A
7721 B 18.476370 -23.702240 12.850360 B
7722 B 18.088300 -24.329050 12.245170 B
7723 B 18.611280 -24.705780 11.545800 B
7724 B 18.769460 24.937560 10.616840 B
7725 B 18.525220 -24.667370 9.711205 B
7726 B 17.787600 -24.048640 10.021240 B
7727 B 17.538210 -23.301130 10.554340 B
7728 A 17.895260 -22.572320 11.038530 A
7729 A 17.869310 -21.634950 10.816200 A
7730 A 17.034700 -21.273910 10.502630 A
7731 A 16.215270 -21.427540 10.999780 A
7732 A 16.373330 -21.429820 11.952310 A
7733 A 16.782320 -21.116320 12.770400 A
7734 A -23.555180 -22.826510 8.696415 A
7735 A -22.677590 -22.417310 8.837353 A
7736 A -22.171580 -23.000340 8.323065 A
7737 A -21.569480 -23.683010 8.043607 A
7738 A -21.125300 -24.478320 8.029999 A
7739 A -20.173810 -24.733090 8.010887 A
7740 B -19.221260 -24.859240 7.899911 B
7741 B -18.269890 -24.644350 7.854403 B
7742 B -17.968970 -23.802020 7.513883 B
7743 B -18.160880 -23.353670 6.687399 B
7744 B -18.550360 -22.939410 5.914237 B
7745 B -18.640470 -22.531240 5.051285 B
7746 B -18.624980 -21.808160 4.391788 B
7747 A -18.071530 -21.023260 4.304154 A
7748 A -17.469290 -20.735660 4.992374 A
7749 A -17.080920 -21.062730 5.813119 A
7750 A -17.497170 -21.485440 6.593712 A
7751 A -17.337300 -22.233220 7.154996 A
7752 A -17.275610 -22.885920 7.851572 A
7753 A 3.229614 7.920303 6.354855 A
7754 A 3.506679 8.403539 7.142629 A
7755 A 3.784289 8.843254 7.951248 A
7756 A 3.727724 8.774176 8.897813 A
7757 A 2.889802 8.350226 9.138577 A
7758 A 2.064480 7.987491 8.870069 A
7759 B 1.386033 8.634352 8.517174 B
7760 B 1.065837 9.222781 7.790507 B
7761 B 1.012573 10.036290 7.237101 B
7762 B 1.224783 10.900030 6.828053 B
7763 B 1.333474 11.841210 6.937792 B
7764 B 0.842720 12.306470 7.661801 B
7765 B 0.192428 11.995650 8.322374 B
7766 A -0.576525 12.493440 8.110545 A
7767 A -1.186238 12.871050 8.770203 A
7768 A -0.560019 13.652980 8.735395 A
7769 A 0.125969 14.385980 8.691925 A
7770 A 0.894826 14.926300 8.574786 A
7771 A 0.942701 15.762860 8.117738 A
7772 A -15.758900 14.452880 2.336711 A
7773 A -16.189280 14.984910 1.680526 A
7774 A -16.877030 15.105200 1.034074 A
7775 A -17.144040 14.219800 0.816648 A
7776 A -17.485370 13.327370 0.672593 A
7777 A -18.014270 12.530370 0.508671 A
7778 B -18.338930 11.845100 -0.062515 B
7779 B -18.305140 11.369160 -0.881892 B
7780 B -17.747360 11.215020 -1.666679 B
7781 B -16.886310 11.142610 -2.153342 B
7782 B -15.966900 10.960580 -1.845648 B
7783 B -15.190280 11.192010 -1.265468 B
7784 B -15.514540 11.516190 -0.381365 B
7785 A -16.013840 12.280340 -0.166274 A
7786 A -16.800460 12.757300 -0.407251 A
7787 A -17.261860 12.659420 -1.257245 A
7788 A -16.621710 13.270360 -1.699450 A
7789 A -15.681930 13.434740 -1.825421 A
7790 A -15.111580 12.646850 -1.899776 A
7791 A -19.989420 -1.051748 1.949169 A
7792 A -19.584300 -1.704172 2.561198 A
7793 A -19.448490 -2.446445 3.116486 A
7794 A -18.914590 -3.127574 3.597696 A
7795 A -18.207950 -3.781702 3.485517 A
7796 A -17.571710 -4.456802 3.793474 A
7797 B -17.045440 -5.120223 4.316485 B
7798 B -16.308280 -5.697258 4.491913 B
7799 B -15.631200 -6.333329 4.718937 B
7800 B -15.424970 -6.909548 5.476175 B
7801 B -15.236620 -7.500293 6.191779 B
7802 B -16.083380 -7.793804 5.773970 B
7803 B -16.942960 -8.155724 5.581559 B
7804 A -17.560040 -7.586481 5.213390 A
7805 A -18.500820 -7.724685 5.517370 A
7806 A -18.839010 -8.277816 6.246169 A
7807 A -19.270600 -8.794918 6.894297 A
7808 A -19.178850 -9.676843 6.429293 A
7809 A -18.551700 -9.923592 5.744321 A
7810 A -23.904600 -1.254148 -19.707600 A
7811 A -22.948350 -1.354874 -19.866900 A
7812 A -22.166460 -1.565250 -20.395270 A
7813 A -21.242060 -1.693533 -20.572850 A
7814 A -20.572980 -2.157235 -21.095290 A
7815 A -20.173610 -2.934644 -21.553690 A
7816 B -20.802640 -3.561394 -21.934010 B
7817 B -21.433150 -3.953880 -22.584740 B
7818 B -21.742320 -3.882715 -23.493460 B
7819 B -21.918550 -3.580817 -24.388850 B
7820 B -21.832750 -2.699538 -24.721810 B
7821 B -21.834730 -1.747172 -24.611890 B
7822 B -22.600420 -1.785060 -24.055900 B
7823 A -23.057800 -1.773204 -23.220050 A
7824 A -23.132130 -1.784556 -22.281200 A
7825 A -23.751970 -1.378306 -21.674760 A
7826 A -24.254690 -0.885333 -21.006310 A
7827 A -24.691780 -0.112943 -20.606060 A
7828 A 24.456580 0.418014 -20.349270 A
7829 A -24.538540 13.420480 -1.661375 A
7830 A -23.952560 13.077980 -0.985024 A
7831 A -23.827680 12.224390 -0.489283 A
7832 A -23.274860 12.138020 0.241318 A
7833 A -22.600010 12.573860 0.801325 A
7834 A -22.229070 13.431210 1.081932 A
7835 B -21.723150 13.793850 0.329429 B
7836 B -21.151380 13.702380 -0.408123 B
7837 B -20.917740 12.967980 -0.956120 B
7838 B -21.138970 12.240940 -1.494733 B
7839 B -21.466900 11.545220 -2.048384 B
7840 B -22.131840 11.620170 -2.818166 B
7841 B -22.849450 12.141030 -3.124237 B
7842 A -23.785680 12.076280 -2.897091 A
7843 A -23.738700 11.545260 -2.098635 A
7844 A -23.962510 10.847090 -1.428608 A
7845 A -24.264930 10.216180 -0.755600 A
7846 A 24.874130 10.636530 -0.410673 A
7847 A 23.900560 10.627990 -0.337198 A
7848 A -3.748215 -15.319960 20.973620 A
7849 A -3.127176 -14.851690 20.494350 A
7850 A -2.709706 -14.032200 20.212180 A
7851 A -2.288067 -13.228280 20.520070 A
7852 A -1.804231 -13.497090 21.292270 A
7853 A -1.627700 -13.764180 22.197270 A
7854 B -1.661276 -14.548730 22.822870 B
7855 B -1.729425 -15.468280 23.135680 B
7856 B -1.497141 -16.325860 23.504990 B
7857 B -1.842771 -17.240340 23.472160 B
7858 B -2.672720 -17.630560 23.779020 B
7859 B -3.288586 -18.033280 24.378890 B
7860 B -4.070684 -17.687530 24.826880 B
7861 A -4.673710 -17.161030 -24.545360 A
7862 A -5.590461 -16.914850 -24.721900 A
7863 A -6.425860 -16.738700 24.704550 A
7864 A -5.912070 -15.911160 24.570100 A
7865 A -5.415867 -15.102280 24.747960 A
7866 A -5.075187 -14.235580 24.767330 A
7867 A 8.942154 -10.987440 -7.860790 A
7868 A 8.616079 -10.908310 -7.039897 A
7869 A 7.966735 -10.770440 -6.346817 A
7870 A 7.498485 -11.240320 -5.675552 A
7871 A 6.709093 -11.517700 -5.165131 A
7872 A 6.292092 -10.872490 -4.626662 A
7873 B 5.456416 -10.832810 -4.152978 B
7874 B 4.470737 -10.839280 -4.210760 B
7875 B 4.401292 -10.686360 -5.167130 B
7876 B 5.007825 -9.912500 -5.307039 B
7877 B 5.313815 -9.130414 -5.840149 B
7878 B 5.531121 -8.228184 -6.052590 B
7879 B 6.279436 -7.949162 -6.640494 B
7880 A 6.503417 -8.232492 -7.511449 A
7881 A 7.036088 -8.477694 -8.246435 A
7882 A 7.782453 -9.028251 -8.331476 A
7883 A 8.436006 -9.262008 -8.969558 A
7884 A 8.963021 -9.154355 -9.794823 A
7885 A 9.687430 -8.709723 -10.263600 A
7886 A 19.647290 18.462260 3.548207 A
7887 A 20.147850 17.737000 3.975092 A
7888 A 20.793880 17.043500 4.183173 A
7889 A 21.015110 16.133800 3.871414 A
7890 A 21.196460 15.232390 4.163584 A
7891 A 20.924820 14.362870 4.496866 A
7892 B 20.879160 14.086180 5.462099 B
7893 B 20.997440 14.865970 5.989600 B
7894 B 20.569650 15.296260 6.717713 B
7895 B 20.237830 14.852750 7.548153 B
7896 B 21.027080 14.401520 8.010723 B
7897 B 21.434870 14.341970 8.882092 B
7898 B 20.577580 14.453310 9.254829 B
7899 A 19.785320 14.982090 9.279961 A
7900 A 19.161050 15.002510 8.508053 A
7901 A 18.636110 14.274330 8.235920 A
7902 A 17.996030 13.627410 7.873074 A
7903 A 17.489250 13.823310 7.067525 A
7904 A 17.532900 14.586780 6.443713 A
7905 A 21.139740 -4.041081 15.765380 A
7906 A 22.004870 -3.556432 15.931710 A
7907 A 22.826230 -3.320421 15.413130 A
7908 A 23.476750 -2.615256 15.210570 A
7909 A 24.209650 -2.006954 15.219760 A
7910 A -24.876950 -1.853147 14.694210 A
7911 B -24.662160 -2.769014 14.476240 B
7912 B -23.708660 -3.035626 14.290810 B
7913 B -22.792900 -3.207636 14.034110 B
7914 B -22.767810 -2.246411 13.964550 B
7915 B -22.642590 -1.512042 13.295940 B
7916 B -22.517830 -1.372645 12.329760 B
7917 B -22.219640 -1.428023 11.393480 B
7918 A -21.477790 -2.037566 11.565660 A
7919 A -21.005330 -2.615151 12.205770 A
7920 A -20.799350 -2.323672 13.138930 A
7921 A -20.789500 -1.367897 13.213130 A
7922 A -20.592920 -0.514895 12.823490 A
7923 A -20.594080 0.445576 12.673540 A
7924 A -1.861835 -1.922695 3.416029 A
7925 A -1.921055 -2.166064 2.470564 A
7926 A -2.461352 -2.441865 1.728526 A
7927 A -3.327095 -2.175101 1.282151 A
7928 A -4.056132 -1.902971 1.772399 A
7929 A -4.495913 -1.991823 2.688054 A
7930 B -4.947691 -1.470058 3.321070 B
7931 B -5.645480 -1.163014 3.885629 B
7932 B -5.725721 -0.210695 3.621773 B
7933 B -5.300651 0.355132 4.236043 B
7934 B -5.641524 1.131471 4.752122 B
7935 B -5.385205 1.687518 5.467101 B
7936 B -4.889329 1.474049 6.212664 B
7937 A -4.715011 2.244077 6.808208 A
7938 A -5.099261 3.129118 6.765433 A
7939 A -5.567770 3.859854 6.369483 A
7940 A -5.834484 3.791067 5.445485 A
7941 A -5.892188 3.806668 4.489237 A
7942 A -6.259952 3.404541 3.638277 A
7943 A 1.784312 19.029490 23.529210 A
7944 A 1.609335 18.533120 22.678540 A
7945 A 1.133270 17.794160 22.274720 A
7946 A 1.006130 17.012040 21.734310 A
7947 A 0.885998 16.631980 20.859690 A
7948 A 0.772558 15.843080 20.319840 A
7949 B 0.749734 14.900030 20.408780 B
7950 B 1.179487 14.202960 20.875060 B
7951 B 1.486033 13.793310 21.682450 B
7952 B 1.720133 13.558350 22.591970 B
7953 B 1.979749 13.319770 23.514950 B
7954 B 1.388620 12.482010 23.300090 B
7955 B 0.785548 11.813870 23.016630 B
7956 A 0.402180 10.986930 23.054590 A
7957 A 0.950182 10.172950 23.488030 A
7958 A 1.649927 9.601949 23.839190 A
7959 A 1.757826 9.434623 22.917760 A
7960 A 2.042888 9.212047 21.971680 A
7961 A 1.375351 9.979291 21.788170 A
7962 A 8.357746 -17.871740 -0.640726 A
7963 A 8.975075 -17.489820 -1.281293 A
7964 A 9.565928 -16.827490 -1.719979 A
7965 A 9.763574 -15.881180 -1.943301 A
7966 A 9.197980 -15.103060 -1.994810 A
7967 A 8.441784 -14.543510 -2.141998 A
7968 B 8.083521 -14.468290 -1.191384 B
7969 B 8.094201 -14.235870 -0.283172 B
7970 B 8.770070 -14.842300 0.120303 B
7971 B 9.362788 -15.340320 0.679409 B
7972 B 8.910778 -16.202110 0.821840 B
7973 B 8.502525 -17.065400 0.797956 B
7974 B 8.105357 -17.876240 1.047204 B
7975 A 7.292164 -18.377380 0.782848 A
7976 A 7.490466 -18.861270 -0.015063 A
7977 A 7.680849 -19.467740 -0.730270 A
7978 A 7.926501 -20.055450 -1.438932 A
7979 A 7.766849 -20.780610 -2.021298 A
7980 A 7.461510 -21.345740 -2.716743 A
7981 A -9.218677 -7.373534 14.851840 A
7982 A -8.764693 -7.939736 15.535370 A
7983 A -7.849646 -8.038692 15.869390 A
7984 A -6.984311 -7.678189 16.012270 A
7985 A -6.222638 -7.739764 16.559110 A
7986 A -5.757279 -7.137145 17.164360 A
7987 B -5.270878 -7.168700 17.981260 B
7988 B -5.939740 -6.945775 18.594650 B
7989 B -6.785795 -6.538496 18.789060 B
7990 B -7.466638 -6.550312 18.104180 B
7991 B -7.924672 -6.656614 17.288600 B
7992 B -8.166564 -6.469612 16.364270 B
7993 B -7.278014 -6.393261 15.970490 B
7994 A -6.595682 -5.938351 16.420590 A
7995 A -6.075640 -5.309632 16.933340 A
7996 A -5.828609 -4.400789 17.163800 A
7997 A -5.755301 -3.623207 17.739700 A
7998 A -4.962996 -3.493620 18.283810 A
7999 A -4.413394 -3.876447 18.973680 A
8000 A 15.804540 17.423030 -15.267700 A
8001 A 16.330270 17.197400 -14.518240 A
8002 A 16.829190 16.559830 -14.025900 A
8003 A 17.151030 15.804240 -13.539550 A
8004 A 17.338230 14.922130 -13.743750 A
8005 A 17.378870 14.780740 -14.670990 A
8006 B 17.180520 15.087900 -15.567330 B
8007 B 17.306940 14.985280 -16.542130 B
8008 B 18.134530 14.679770 -16.900590 B
8009 B 18.717980 13.921870 -16.950640 B
8010 B 19.240260 13.241530 -16.470420 B
8011 B 19.847140 12.581000 -16.106060 B
8012 B 20.175020 11.826170 -15.603490 B
8013 A 20.476670 11.148090 -14.992940 A
8014 A 20.904820 10.683980 -14.303730 A
8015 A 21.347330 10.313100 -13.524460 A
8016 A 21.332900 9.945234 -12.665740 A
8017 A 21.418990 9.755018 -11.730070 A
8018 A 20.572750 10.001880 -11.383460 A
8019 A 10.762500 6.287833 -18.965160 A
8020 A 11.294610 5.472736 -19.265240 A
8021 A 12.067650 5.019217 -19.635460 A
8022 A 12.765400 4.406276 -20.021010 A
8023 A 12.235440 3.637110 -20.308640 A
8024 A 11.350050 3.312694 -20.029530 A
8025 B 11.619540 2.762663 -19.297050 B
8026 B 12.464970 2.482975 -18.941620 B
8027 B 13.380820 2.231905 -19.033370 B
8028 B 14.004760 1.591168 -19.381600 B
8029 B 14.570300 1.124342 -20.010020 B
8030 B 14.878150 1.058812 -20.912610 B
8031 B 15.211940 1.173633 -21.789730 B
8032 A 14.898790 1.996811 -22.113150 A
8033 A 14.523870 2.846485 -21.988890 A
8034 A 14.027970 3.679286 -21.944770 A
8035 A 13.303680 4.271536 -21.739330 A
8036 A 12.351860 4.424994 -21.821540 A
8037 A 11.527460 4.879223 -21.847210 A
8038 A -17.581470 10.163710 0.520181 A
8039 A -16.863100 9.671609 0.043596 A
8040 A -17.055030 8.900434 -0.495785 A
8041 A -17.004710 8.128803 -1.055305 A
8042 A -16.478450 7.887309 -1.822994 A
8043 A -15.831450 8.265956 -2.459536 A
8044 B -16.400880 8.976618 -2.740304 B
8045 B -17.305320 9.299747 -2.991345 B
8046 B -17.425600 8.503578 -3.528576 B
8047 B -17.628510 7.542296 -3.327060 B
8048 B -17.580200 6.596863 -3.382022 B
8049 B -18.208210 6.422639 -2.697061 B
8050 B -19.131280 6.541665 -2.440540 B
8051 A -19.506890 7.327863 -2.089093 A
8052 A -19.706490 8.104517 -2.592225 A
8053 A -19.639320 8.946618 -2.012912 A
8054 A -19.410340 9.478872 -2.820899 A
8055 A -19.930350 10.111280 -3.360103 A
8056 A -20.606400 10.341200 -3.986214 A
8057 A -21.859280 7.830783 10.508070 A
8058 A -22.679570 8.472164 11.069480 A
8059 A -21.768740 8.768519 11.666660 A
8060 A -21.060150 9.492515 11.219320 A
8061 A -20.788510 10.382880 11.132710 A
8062 A -20.130130 10.795510 10.636550 A
8063 B -19.851050 9.829830 10.833430 B
8064 B -20.233290 9.005031 11.081080 B
8065 B -20.608680 8.260541 11.697970 B
8066 B -20.658900 8.031564 12.680250 B
8067 B -21.020380 8.886531 12.947500 B
8068 B -21.939120 9.324960 13.034320 B
8069 B -22.803340 8.782593 13.328700 B
8070 A -23.237500 9.301896 12.701920 A
8071 A -24.276910 9.123669 12.709590 A
8072 A 24.574350 9.011939 13.028490 A
8073 A -24.928210 8.261088 12.412150 A
8074 A -24.176480 7.549456 12.274860 A
8075 A -23.713160 7.506271 13.158510 A
8076 A 7.471399 -14.089070 -10.157260 A
8077 A 6.976857 -13.286950 -9.731701 A
8078 A 6.915041 -12.724370 -9.028617 A
8079 A 7.110317 -12.479380 -8.138347 A
8080 A 7.090129 -12.493980 -7.115864 A
8081 A 7.010096 -13.442980 -6.787669 A
8082 B 7.672988 -14.069820 -6.617181 B
8083 B 7.183434 -14.369150 -7.478697 B
8084 B 6.935441 -13.784090 -8.208465 B
8085 B 6.086404 -14.167350 -7.908342 B
8086 B 5.442112 -14.866970 -7.787554 B
8087 B 5.214814 -15.648930 -7.188572 B
8088 B 5.100157 -15.395220 -6.351193 B
8089 A 4.505963 -16.037120 -5.927742 A
8090 A 3.731551 -15.911410 -5.321261 A
8091 A 2.953477 -16.072000 -4.698977 A
8092 A 2.025029 -15.689300 -4.920302 A
8093 A 1.159604 -15.402180 -4.960827 A
8094 A 0.946470 -14.908610 -5.827898 A
8095 A -10.316550 -1.328613 8.184932 A
8096 A -11.198430 -1.704045 8.067556 A
8097 A -11.952830 -1.555444 7.429606 A
8098 A -12.729760 -1.538643 6.812616 A
8099 A -13.468150 -2.041608 6.434480 A
8100 A -14.055980 -2.718586 6.388675 A
8101 B -14.806920 -3.300483 6.527948 B
8102 B -15.351940 -3.457266 7.316374 B
8103 B -16.107880 -4.061003 7.211413 B
8104 B -16.947370 -3.555474 7.265854 B
8105 B -16.962980 -2.578550 7.323920 B
8106 B -16.428790 -1.847380 7.027989 B
8107 B -15.723950 -1.309634 6.773103 B
8108 A -14.872780 -0.863954 6.654930 A
8109 A -14.016060 -0.601901 6.327547 A
8110 A -13.111190 -0.375857 6.220521 A
8111 A -12.161970 -0.690967 6.166849 A
8112 A -11.314980 -1.015639 5.858593 A
8113 A -10.378550 -1.064848 5.804590 A
8114 A -2.040263 -14.180170 5.202960 A
8115 A -2.057624 -13.290020 5.602698 A
8116 A -2.499302 -12.704620 4.957713 A
8117 A -2.748942 -11.840790 4.681909 A
8118 A -3.005198 -10.921020 4.465535 A
8119 A -3.556725 -10.206840 4.185556 A
8120 B -3.598177 -10.186910 5.121824 B
8121 B -3.488902 -10.168730 6.080623 B
8122 B -3.148976 -9.647654 6.860393 B
8123 B -2.291654 -9.283087 6.843088 B
8124 B -1.775985 -9.496358 6.042916 B
8125 B -1.621217 -9.474224 5.063850 B
8126 B -1.874950 -9.365332 4.143615 B
8127 A -2.416982 -9.196733 3.387919 A
8128 A -3.135720 -8.917713 2.808660 A
8129 A -3.768605 -8.772957 2.102366 A
8130 A -4.209943 -9.606929 2.302093 A
8131 A -4.496042 -10.479000 2.604371 A
8132 A -5.028096 -11.324630 2.658858 A
8133 A -3.689938 16.760360 -6.455453 A
8134 A -3.460178 17.426630 -5.840673 A
8135 A -2.884460 17.810010 -5.167614 A
8136 A -2.887022 18.390110 -4.405625 A
8137 A -2.693929 19.102950 -3.814211 A
8138 A -2.685925 20.059240 -3.704224 A
8139 B -3.163928 20.937360 -3.794097 B
8140 B -3.904728 20.408070 -4.134929 B
8141 B -4.079063 19.501930 -4.415230 B
8142 B -4.359114 18.664890 -3.906209 B
8143 B -3.769440 17.938690 -3.932450 B
8144 B -2.947433 17.514310 -3.648936 B
8145 B -2.297585 16.768170 -3.837665 B
8146 A -2.808448 16.207870 -3.227682 A
8147 A -3.271346 16.867210 -2.715760 A
8148 A -3.852093 17.137010 -1.968844 A
8149 A -3.945299 17.930430 -1.446963 A
8150 A -4.211485 18.874700 -1.329947 A
8151 A -4.970553 19.423130 -1.240623 A
8152 A 10.395090 14.569620 -10.324990 A
8153 A 10.693420 14.204250 -11.149930 A
8154 A 10.374290 13.550250 -11.767310 A
8155 A 10.199820 12.670360 -12.172220 A
8156 A 10.171330 11.746360 -12.113950 A
8157 A 10.048230 12.078810 -11.284820 A
8158 B 10.167800 12.577890 -10.475000 B
8159 B 9.869634 12.905470 -9.618010 B
8160 B 9.587862 13.487660 -8.935577 B
8161 B 9.725536 13.937000 -8.050736 B
8162 B 10.092870 13.268280 -7.469492 B
8163 B 10.950230 13.578800 -7.791652 B
8164 B 11.673900 13.455320 -7.203337 B
8165 A 12.095230 12.791620 -6.663893 A
8166 A 11.998980 11.818420 -6.623834 A
8167 A 12.502240 10.990630 -6.536124 A
8168 A 12.897120 10.123840 -6.649378 A
8169 A 13.180300 9.288482 -6.854335 A
8170 A 13.859420 8.602257 -7.051417 A
8171 A 18.669480 5.085778 -10.400180 A
8172 A 18.508080 5.923786 -10.850850 A
8173 A 17.972400 6.291709 -11.493040 A
8174 A 17.450850 6.312776 -12.332010 A
8175 A 16.872610 6.959580 -11.929460 A
8176 A 17.286330 7.220403 -12.694960 A
8177 B 17.484910 7.907510 -12.053470 B
8178 B 17.748510 8.420337 -11.345170 B
8179 B 18.578270 8.002999 -11.515980 B
8180 B 18.801730 7.112400 -11.774040 B
8181 B 19.441720 6.472597 -11.988920 B
8182 B 19.409720 5.709600 -12.599550 B
8183 B 19.212790 5.256317 -13.397830 B
8184 A 19.084030 5.303802 -14.327210 A
8185 A 18.449590 5.410035 -15.008550 A
8186 A 17.802020 5.897447 -15.591240 A
8187 A 17.336970 6.514966 -16.262020 A
8188 A 16.767790 7.305129 -16.453150 A
8189 A 16.049470 7.355031 -17.058840 A
8190 A 21.840950 16.633730 -0.854562 A
8191 A 20.890170 16.894680 -0.652113 A
8192 A 20.079510 17.430240 -0.634647 A
8193 A 19.790900 18.271400 -1.002527 A
8194 A 19.792750 17.935470 -1.976133 A
8195 A 20.576300 17.559650 -2.478748 A
8196 B 21.257040 16.913790 -2.483217 B
8197 B 21.969730 16.461050 -1.953026 B
8198 B 22.781420 16.475600 -1.446147 B
8199 B 23.356660 17.231510 -1.391049 B
8200 B 24.139500 17.358120 -1.953348 B
8201 B 24.612770 16.709820 -2.504392 B
8202 B 24.437460 15.795350 -2.546993 B
8203 A 24.588350 15.114400 -1.895362 A
8204 A -24.920060 14.535560 -1.237555 A
8205 A 24.763590 13.744670 -0.704059 A
8206 A 23.948060 13.235940 -0.873003 A
8207 A 23.055400 12.987300 -0.589927 A
8208 A 22.111210 13.076100 -0.616504 A
8209 A 3.746781 9.797487 -15.767440 A
8210 A 4.629033 10.052390 -15.500960 A
8211 A 5.476408 9.870559 -15.090110 A
8212 A 6.196156 9.477462 -14.587950 A
8213 A 6.755039 8.749447 -14.909340 A
8214 A 6.353152 7.894080 -14.943720 A
8215 B 5.490616 7.457956 -14.846580 B
8216 B 4.828332 8.122403 -14.807490 B
8217 B 4.269661 8.845393 -14.563990 B
8218 B 3.597280 9.254077 -14.043020 B
8219 B 3.061549 9.831658 -13.486220 B
8220 B 2.407666 10.387540 -13.096290 B
8221 B 1.629302 10.926900 -12.797510 B
8222 A 1.450499 11.291650 -11.893940 A
8223 A 1.349448 11.774480 -11.074820 A
8224 A 0.777060 12.455340 -10.722720 A
8225 A 0.221005 12.810120 -11.385190 A
8226 A -0.155634 12.624720 -12.243710 A
8227 A -0.388296 12.026290 -12.948220 A
8228 A 10.872840 -10.560730 -20.905650 A
8229 A 11.307260 -9.788514 -20.535360 A
8230 A 12.164400 -9.276050 -20.414450 A
8231 A 12.464860 -9.508819 -19.533960 A
8232 A 12.618370 -10.248910 -18.919940 A
8233 A 12.564690 -10.758010 -18.122570 A
8234 B 12.475240 -11.162820 -17.255570 B
8235 B 12.807370 -11.772630 -16.524150 B
8236 B 13.507160 -12.404740 -16.375690 B
8237 B 13.863800 -13.295380 -16.351650 B
8238 B 14.525550 -14.026180 -16.541600 B
8239 B 14.736290 -14.930460 -16.727330 B
8240 B 15.471120 -15.371460 -16.314560 B
8241 A 15.863450 -15.120280 -15.487830 A
8242 A 15.644230 -15.055700 -14.561470 A
8243 A 14.750580 -15.005480 -14.306080 A
8244 A 13.845290 -14.685150 -14.463270 A
8245 A 12.926840 -14.517160 -14.775470 A
8246 A 12.508420 -14.145630 -15.571400 A
8247 A -21.497910 4.495398 -14.262930 A
8248 A -22.483020 4.583981 -14.018410 A
8249 A -22.052900 4.544910 -13.141680 A
8250 A -21.507490 4.026817 -12.475150 A
8251 A -20.963720 3.785707 -11.734880 A
8252 A -20.283600 3.856234 -11.002500 A
8253 B -19.475600 4.026479 -10.533680 B
8254 B -19.922110 4.630876 -9.863797 B
8255 B -19.404860 5.065216 -10.498310 B
8256 B -18.967070 5.972692 -10.783400 B
8257 B -18.476470 6.138725 -11.762160 B
8258 B -18.377290 5.398270 -12.316970 B
8259 B -18.896710 4.677029 -12.763880 B
8260 A -19.445600 5.327940 -13.261260 A
8261 A -20.109870 5.693190 -13.882520 A
8262 A -20.450870 6.405445 -13.390840 A
8263 A -20.322660 6.964354 -12.644890 A
8264 A -20.827750 6.642590 -11.920030 A
8265 A -20.697810 6.889908 -10.978450 A
8266 A 4.923886 -2.706497 -14.887190 A
8267 A 5.600466 -3.148294 -15.389730 A
8268 A 6.526153 -3.169604 -15.142170 A
8269 A 6.851606 -3.106384 -14.228940 A
8270 A 7.382913 -3.452647 -13.494190 A
8271 A 7.193916 -4.260224 -13.027640 A
8272 B 6.752750 -5.021646 -13.449980 B
8273 B 6.815768 -5.350899 -14.351470 B
8274 B 6.956349 -5.549592 -15.288320 B
8275 B 7.545003 -5.827874 -15.962130 B
8276 B 8.142689 -6.291804 -16.556880 B
8277 B 8.820483 -6.962856 -16.598030 B
8278 B 9.373266 -7.633015 -16.221090 B
8279 A 9.229154 -8.393466 -15.653960 A
8280 A 8.626011 -8.694402 -14.927840 A
8281 A 7.775235 -8.893085 -14.476710 A
8282 A 7.493930 -9.698500 -14.027660 A
8283 A 8.302893 -10.041010 -13.571740 A
8284 A 9.088700 -10.089540 -13.035950 A
8285 A 13.612680 13.020720 -24.461550 A
8286 A 13.737030 13.927540 -24.708570 A
8287 A 13.870530 14.880310 -24.776230 A
8288 A 13.547840 15.774280 24.921120 A
8289 A 12.947740 16.438470 -24.720130 A
8290 A 12.337560 15.620680 -24.458180 A
8291 B 12.371470 14.943840 -23.726940 B
8292 B 12.863170 14.770710 -22.907790 B
8293 B 13.370890 14.679170 -22.137870 B
8294 B 13.474180 14.818980 -21.205780 B
8295 B 13.561210 15.081200 -20.253600 B
8296 B 12.772150 15.035960 -19.580870 B
8297 B 13.078110 14.892700 -18.686730 B
8298 A 12.604140 15.441790 -18.064080 A
8299 A 12.698350 16.368110 -17.856410 A
8300 A 12.810510 17.289660 -17.823300 A
8301 A 12.307190 18.143300 -17.832070 A
8302 A 11.661310 18.672950 -18.393420 A
8303 A 11.103530 19.346410 -18.779330 A
8304 A -4.719212 17.956040 6.319538 A
8305 A -4.955119 18.852690 6.548674 A
8306 A -5.521173 19.390500 6.134797 A
8307 A -6.178746 20.087780 5.766469 A
8308 A -6.021122 19.611540 4.836401 A
8309 A -5.695475 18.793620 4.178791 A
8310 B -5.971396 17.788170 4.252161 B
8311 B -5.984149 16.972900 4.836850 B
8312 B -5.707765 16.893840 5.728756 B
8313 B -5.982701 17.154580 6.606566 B
8314 B -6.653357 17.815370 6.899096 B
8315 B -7.193662 18.518560 7.293843 B
8316 B -7.424953 19.126040 7.929895 B
8317 A -8.073992 19.016970 8.719094 A
8318 A -8.379755 18.327460 9.306071 A
8319 A -8.259783 17.393580 9.143271 A
8320 A -7.907995 16.526740 8.991977 A
8321 A -7.391561 15.680080 9.046367 A
8322 A -6.738782 15.003480 8.885147 A
8323 A -10.612680 17.422780 -15.790950 A
8324 A -9.909810 18.105030 -15.708590 A
8325 A -9.429679 18.636650 -15.103180 A
8326 A -9.732378 18.947220 -14.224830 A
8327 A -9.955627 19.443020 -13.470460 A
8328 A -10.715170 19.989730 -13.370700 A
8329 B -10.831540 20.417980 -14.250230 B
8330 B -11.183670 19.575310 -14.718350 B
8331 B -11.990740 19.112500 -14.446090 B
8332 B -12.306490 18.786970 -15.291600 B
8333 B -12.824990 18.294850 -15.893840 B
8334 B -13.714560 18.157110 -16.213890 B
8335 B -14.573010 18.056200 -15.815450 B
8336 A -15.296170 18.378530 -15.243940 A
8337 A -15.917440 18.949810 -14.848140 A
8338 A -16.556950 18.822220 -14.161030 A
8339 A -16.970580 18.679770 -13.304840 A
8340 A -16.264130 18.195630 -12.816610 A
8341 A -15.924750 18.347250 -11.949280 A
8342 A 3.505563 21.877820 24.517700 A
8343 A 2.852865 22.043510 23.786760 A
8344 A 2.893804 22.104970 22.856160 A
8345 A 3.227602 22.162160 21.993930 A
8346 A 3.850127 22.668510 21.483110 A
8347 A 4.459064 23.226880 20.880490 A
8348 B 4.776430 23.962600 20.391950 B
8349 B 4.999111 24.783430 19.992490 B
8350 B 5.543375 -24.760460 19.301880 B
8351 B 5.223644 24.403030 18.697270 B
8352 B 4.657079 23.901520 19.282580 B
8353 B 3.841934 23.804690 19.798390 B
8354 B 2.960973 23.839190 19.534830 B
8355 A 3.112386 23.729590 18.628690 A
8356 A 3.303530 23.822390 17.650480 A
8357 A 3.911858 23.938540 16.939330 A
8358 A 4.480002 23.633880 16.219550 A
8359 A 5.068388 23.721030 15.384210 A
8360 A 5.737939 23.763630 14.697570 A
8361 A -16.550010 -12.102780 -22.710630 A
8362 A -16.419150 -11.180180 -23.062160 A
8363 A -16.497220 -10.269880 -22.765810 A
8364 A -15.954840 -10.269140 -21.957860 A
8365 A -15.123020 -9.983362 -21.628010 A
8366 A -14.219080 -10.284640 -21.335490 A
8367 B -13.390250 -9.775896 -21.480010 B
8368 B -13.511060 -9.205514 -22.195770 B
8369 B -13.909790 -9.185743 -23.027770 B
8370 B -14.286650 -9.040041 -23.907580 B
8371 B -14.259500 -9.050399 -24.909170 B
8372 B -14.966110 -8.997507 24.353410 B
8373 B -15.642140 -9.659951 24.045310 B
8374 A -15.298450 -10.428740 24.437610 A
8375 A -15.065220 -11.062180 -24.778660 A
8376 A -14.864640 -11.919340 -24.377720 A
8377 A -14.300460 -12.642650 -23.847820 A
8378 A -14.483980 -13.265380 -23.121730 A
8379 A -14.199000 -14.126640 -23.308160 A
8380 A -21.703460 -10.000030 8.712738 A
8381 A -21.940900 -9.231407 9.331641 A
8382 A -21.943120 -8.352196 9.777503 A
8383 A -21.115170 -7.988302 10.169530 A
8384 A -20.278990 -8.255360 10.524500 A
8385 A -19.562280 -8.151961 11.103110 A
8386 B -19.119580 -8.887187 11.521660 B
8387 B -18.526690 -9.524443 11.079400 B
8388 B -17.762530 -9.989128 10.809830 B
8389 B -17.016780 -10.558210 10.982470 B
8390 B -16.353780 -10.351330 11.736540 B
8391 B -15.634960 -10.372420 12.429970 B
8392 B -14.797290 -10.717080 12.737130 B
8393 A -14.533280 -11.020080 11.862150 A
8394 A -14.518110 -11.272590 10.934650 A
8395 A -15.254500 -11.533420 10.430780 A
8396 A -15.544880 -12.091640 9.701468 A
8397 A -15.114860 -12.112600 8.819581 A
8398 A -14.406560 -11.748290 8.319461 A
8399 A -16.473950 -14.642520 7.363609 A
8400 A -15.724290 -14.774690 6.777438 A
8401 A -14.839340 -14.937870 7.061582 A
8402 A -13.902870 -14.594580 7.062232 A
8403 A -14.057930 -13.977730 7.795353 A
8404 A -13.642580 -13.804920 8.666278 A
8405 B -13.101370 -13.019320 8.754892 B
8406 B -12.815180 -12.221010 8.337958 B
8407 B -12.415930 -12.510450 7.468557 B
8408 B -11.952870 -13.211680 7.050632 B
8409 B -11.951030 -14.149620 7.203972 B
8410 B -12.002850 -15.054500 7.594249 B
8411 B -12.392270 -14.886560 8.459781 B
8412 A -12.999050 -14.925860 9.230703 A
8413 A -13.462610 -14.427990 9.916643 A
8414 A -13.365220 -13.783390 10.639440 A
8415 A -12.836030 -13.027630 10.879820 A
8416 A -12.297920 -12.453710 11.426340 A
8417 A -11.553480 -11.957970 11.745800 A
8418 A 0.226571 -17.039120 -22.763070 A
8419 A -0.610719 -17.478420 -22.547890 A
8420 A -1.280309 -18.111500 -22.306890 A
8421 A -1.574920 -18.903290 -21.794460 A
8422 A -0.907678 -19.181350 -21.180000 A
8423 A -0.147549 -19.595720 -21.654400 A
8424 B -0.001036 -20.461650 -22.076920 B
8425 B -0.099859 -21.321150 -21.713960 B
8426 B -0.183877 -21.918070 -20.935850 B
8427 B 0.273710 -22.498030 -20.304730 B
8428 B 1.250381 -22.667270 -20.509390 B
8429 B 2.019044 -22.603650 -21.094890 B
8430 B 2.433460 -22.737120 -21.929580 B
8431 A 3.078666 -23.208210 -22.516340 A
8432 A 3.831280 -23.730720 -22.218600 A
8433 A 4.251018 -24.293850 -21.556970 A
8434 A 4.955001 24.955380 -21.349050 A
8435 A 5.435237 24.150290 -21.147910 A
8436 A 5.806848 23.293480 -20.893770 A
8437 A -12.422730 2.752330 -23.244540 A
8438 A -11.717680 3.336900 -23.516730 A
8439 A -11.088580 4.045979 -23.251400 A
8440 A -10.717250 4.924063 -23.025710 A
8441 A -10.419840 5.641853 -22.384000 A
8442 A -9.537251 5.962218 -22.232980 A
8443 B -8.633797 5.761004 -22.044550 B
8444 B -7.890533 5.107587 -22.124760 B
8445 B -7.565915 4.386505 -22.670120 B
8446 B -6.929056 4.114572 -23.355180 B
8447 B -6.389034 3.558982 -23.890890 B
8448 B -5.807473 3.348207 -24.596180 B
8449 B -4.964850 3.089555 24.900290 B
8450 A -4.804826 3.167369 23.932490 A
8451 A -5.307034 3.982514 23.671590 A
8452 A -5.832230 4.748420 23.479630 A
8453 A -6.068139 5.671930 23.310080 A
8454 A -6.295192 6.295120 22.623980 A
8455 A -6.790372 6.768587 21.990960 A
8456 A 3.218660 -14.604250 -21.106590 A
8457 A 3.461040 -13.715610 -21.611180 A
8458 A 3.030803 -13.635210 -22.606180 A
8459 A 2.840651 -12.643460 -22.525670 A
8460 A 2.355393 -11.740030 -22.552660 A
8461 A 2.900504 -11.022410 -22.292020 A
8462 B 2.622676 -11.285830 -21.423250 B
8463 B 3.486673 -11.361540 -20.902360 B
8464 B 4.395749 -11.532850 -21.149270 B
8465 B 4.769954 -12.384520 -21.153440 B
8466 B 5.534944 -12.940740 -21.006480 B
8467 B 6.211910 -13.495270 -21.499480 B
8468 B 6.481219 -14.165130 -22.187280 B
8469 A 6.384827 -14.603920 -23.042190 A
8470 A 5.431689 -14.716890 -23.080590 A
8471 A 4.479142 -14.857800 -22.847390 A
8472 A 3.759636 -15.472520 -22.719560 A
8473 A 4.035735 -16.321140 -23.087200 A
8474 A 3.750285 -16.673370 -23.944980 A
8475 A -15.699850 16.626700 -19.027060 A
8476 A -16.587150 16.344850 -18.673370 A
8477 A -17.429420 16.363430 -18.199830 A
8478 A -18.296880 16.038160 -18.025270 A
8479 A -18.212560 15.265280 -17.443840 A
8480 A -18.210000 14.290860 -17.618480 A
8481 B -18.088500 14.445170 -18.524460 B
8482 B -17.740350 14.613920 -19.408770 B
8483 B -17.859550 15.343840 -20.064260 B
8484 B -17.706940 16.272250 -20.172000 B
8485 B -17.313190 17.196290 -20.056820 B
8486 B -16.760850 18.055140 -19.961900 B
8487 B -16.859320 18.278840 -18.994740 B
8488 A -16.981320 18.493960 -18.046290 A
8489 A -17.008620 19.468830 -18.037090 A
8490 A -17.513900 20.157970 -17.596900 A
8491 A -17.886320 20.423310 -16.753450 A
8492 A -18.419600 20.084940 -16.068530 A
8493 A -18.757180 19.842610 -15.192380 A
8494 A 18.126670 11.368870 -10.839880 A
8495 A 18.675940 10.771020 -10.270120 A
8496 A 19.366610 10.143130 -10.129870 A
8497 A 19.883410 9.426050 -10.441860 A
8498 A 20.328730 8.904920 -11.121140 A
8499 A 20.925130 8.185606 -11.299550 A
8500 B 20.942060 7.196190 -11.191110 B
8501 B 20.648490 7.094490 -10.276170 B
8502 B 21.166490 7.510898 -9.546884 B
8503 B 21.852200 7.931012 -8.998314 B
8504 B 22.534730 7.931157 -8.321840 B
8505 B 21.826320 7.913637 -7.725970 B
8506 B 21.068490 7.954161 -7.169378 B
8507 A 20.553360 7.867346 -6.416650 A
8508 A 21.188320 7.555331 -5.769573 A
8509 A 21.902220 7.006220 -5.328605 A
8510 A 22.815400 6.689784 -5.517008 A
8511 A 23.735250 6.677605 -5.172522 A
8512 A 24.572620 6.804484 -4.633308 A
8513 A -4.127900 1.681900 10.730620 A
8514 A -4.466858 1.070189 10.030950 A
8515 A -5.137089 0.769789 9.398254 A
8516 A -5.944086 0.933974 8.882816 A
8517 A -6.082441 0.267066 8.228328 A
8518 A -6.030782 -0.623459 7.866774 A
8519 B -6.294439 -1.168125 7.178500 B
8520 B -6.768481 -1.390972 6.317286 B
8521 B -7.315221 -1.521588 5.519928 B
8522 B -7.757842 -0.711581 5.344609 B
8523 B -7.646212 0.008401 6.052499 B
8524 B -7.821894 0.849652 6.496176 B
8525 B -7.988306 1.668343 7.015980 B
8526 A -8.687488 2.257347 6.872127 A
8527 A -9.146608 2.888481 7.483176 A
8528 A -9.881493 2.353174 7.283487 A
8529 A -10.056440 1.368296 7.167881 A
8530 A -9.461206 0.989594 7.890876 A
8531 A -9.512882 0.066988 8.055792 A
8532 A -17.089590 -12.490160 -23.808800 A
8533 A -17.211500 -11.559950 -23.724810 A
8534 A -18.136100 -11.358330 -24.018160 A
8535 A -18.694510 -11.845000 -24.618540 A
8536 A -19.286540 -12.086130 24.586490 A
8537 A -19.590420 -12.405670 23.743400 A
8538 B -19.151270 -12.693240 22.930900 B
8539 B -18.705390 -12.636980 22.085090 B
8540 B -18.154230 -13.200160 21.529590 B
8541 B -17.532630 -13.910470 21.474140 B
8542 B -16.935370 -14.534970 21.178220 B
8543 B -16.765440 -15.495870 21.197200 B
8544 B -16.681890 -16.341870 20.810170 B
8545 A -17.274880 -16.694890 20.127430 A
8546 A -18.184760 -16.397990 19.818320 A
8547 A -19.059670 -16.054780 19.842140 A
8548 A -19.557270 -15.244220 20.100780 A
8549 A -20.175310 -14.652020 20.485340 A
8550 A -21.019170 -14.240080 20.434010 A
8551 A 16.931390 -2.867714 18.642220 A
8552 A 16.653520 -1.938771 18.511690 A
8553 A 16.542130 -1.000248 18.402070 A
8554 A 16.233090 -0.154938 18.795190 A
8555 A 16.934570 0.001792 19.409340 A
8556 A 17.592380 -0.611090 19.771950 A
8557 B 18.103820 -1.297965 19.302240 B
8558 B 18.292550 -1.842875 18.516120 B
8559 B 18.432110 -1.897032 17.533740 B
8560 B 17.938750 -1.469106 16.801570 B
8561 B 17.521640 -0.623048 16.665370 B
8562 B 17.823390 0.023614 16.015330 B
8563 B 17.348910 0.341782 15.252660 B
8564 A 16.597210 0.457491 14.616750 A
8565 A 15.680190 0.719107 14.766270 A
8566 A 14.870610 0.725770 15.226490 A
8567 A 14.406110 1.548845 15.324630 A
8568 A 13.963640 2.394475 15.315930 A
8569 A 13.203390 2.943842 15.103770 A
8570 A 9.962253 14.850220 1.191279 A
8571 A 9.916337 14.747380 2.145594 A
8572 A 10.181460 14.901870 3.069482 A
8573 A 10.998620 15.093730 3.550266 A
8574 A 11.907600 14.727820 3.592831 A
8575 A 12.672940 14.254620 3.296016 A
8576 B 13.187700 14.433920 2.509328 B
8577 B 13.343490 14.974660 1.715288 B
8578 B 13.438910 15.727960 1.120243 B
8579 B 12.916220 16.028600 0.350778 B
8580 B 12.164440 15.761140 -0.242161 B
8581 B 12.132580 14.818030 -0.190020 B
8582 B 12.501580 13.891880 -0.155124 B
8583 A 12.765860 13.241110 0.581430 A
8584 A 12.573950 12.301160 0.720104 A
8585 A 12.112530 11.609910 0.283038 A
8586 A 11.294300 12.046230 0.643310 A
8587 A 10.567740 12.248520 -0.081982 A
8588 A 9.972466 12.884250 -0.495829 A
8589 A 2.741269 8.635229 20.884330 A
8590 A 2.914495 8.988422 20.060140 A
8591 A 2.538698 9.149502 19.185860 A
8592 A 2.124082 9.547490 18.391720 A
8593 A 2.306020 10.412040 18.045690 A
8594 A 2.658221 10.660310 17.192780 A
8595 B 2.176135 10.244560 16.514850 B
8596 B 1.672689 9.402406 16.111650 B
8597 B 1.613679 8.502855 15.929840 B
8598 B 1.020293 8.655236 16.779350 B
8599 B 1.319843 7.878156 17.371660 B
8600 B 1.860988 7.797850 18.237110 B
8601 B 1.291117 7.088109 18.347760 B
8602 A 0.852867 6.855703 17.538310 A
8603 A 1.680558 6.787393 17.083130 A
8604 A 2.421220 6.558888 17.647200 A
8605 A 3.156845 6.709630 18.276740 A
8606 A 4.079090 6.501053 18.091900 A
8607 A 4.792199 5.913468 18.412940 A
8608 A 10.022650 15.020470 -18.510150 A
8609 A 10.665930 15.294490 -19.243580 A
8610 A 9.876284 14.894470 -19.644410 A
8611 A 9.110446 14.345050 -19.993320 A
8612 A 8.144377 14.110240 -20.036040 A
8613 A 7.517245 14.891450 -20.194100 A
8614 B 7.802740 15.730210 -19.817430 B
8615 B 7.583428 16.010680 -20.767130 B
8616 B 7.000806 15.585910 -21.405130 B
8617 B 6.852692 14.920040 -22.067780 B
8618 B 7.122605 15.217360 -22.906070 B
8619 B 6.182386 15.072950 -22.868280 B
8620 B 5.525578 15.748540 -23.257280 B
8621 A 5.926422 16.084870 -22.504130 A
8622 A 6.463109 16.764560 -22.082920 A
8623 A 7.305428 17.039530 -22.292820 A
8624 A 8.171618 16.766200 -22.711790 A
8625 A 8.840984 16.446460 -23.361660 A
8626 A 9.264394 16.688250 -24.196840 A
8627 A -18.594390 1.430447 7.149546 A
8628 A -18.626700 2.390010 7.286027 A
8629 A -19.519770 2.588065 6.967583 A
8630 A -19.558220 2.060671 6.066639 A
8631 A -20.425340 2.272326 6.476147 A
8632 A -21.072190 3.078838 6.631398 A
8633 B -21.591160 3.840295 6.705741 B
8634 B -21.642050 4.756604 6.396233 B
8635 B -21.430390 4.567735 5.498146 B
8636 B -21.985580 4.154927 4.865038 B
8637 B -22.709510 3.984051 4.276745 B
8638 B -23.177200 3.225405 3.931669 B
8639 B -23.655210 2.450902 4.215768 B
8640 A -24.201800 1.677874 4.559626 A
8641 A -24.498070 0.790934 4.590546 A
8642 A -24.903190 -0.056953 4.609542 A
8643 A -24.911940 -0.160124 3.668513 A
8644 A -24.302380 0.365927 3.200494 A
8645 A -23.532280 0.941907 3.075728 A
8646 A -16.825900 -6.492179 -14.454650 A
8647 A -16.369410 -6.865723 -15.179890 A
8648 A -16.013280 -7.263732 -15.962430 A
8649 A -15.852910 -7.085824 -16.896650 A
8650 A -16.222810 -7.180951 -17.770540 A
8651 A -16.473170 -7.371475 -18.685990 A
8652 B -17.008470 -7.593337 -19.506070 B
8653 B -17.863750 -7.217539 -19.525790 B
8654 B -18.718860 -7.631008 -19.486470 B
8655 B -18.890160 -8.495337 -19.220570 B
8656 B -18.855190 -9.040813 -18.401190 B
8657 B -18.130310 -9.399766 -17.839400 B
8658 B -17.172390 -9.337073 -17.785270 B
8659 A -17.039090 -8.453297 -18.102440 A
8660 A -17.807990 -7.913121 -18.040150 A
8661 A -18.034030 -7.279271 -17.333800 A
8662 A -17.359770 -7.574706 -16.738900 A
8663 A -16.712870 -8.260419 -16.899680 A
8664 A -15.880300 -8.553299 -17.441710 A
8665 A -23.947730 -18.775160 18.823640 A
8666 A -23.639210 -18.948860 19.747420 A
8667 A -22.829130 -19.172450 20.239100 A
8668 A -22.149600 -19.805330 20.416400 A
8669 A -21.474750 -19.158720 20.040940 A
8670 A -20.586890 -19.348660 19.971890 A
8671 B -20.017020 -20.028990 19.835650 B
8672 B -19.426110 -19.504170 19.242830 B
8673 B -18.771690 -19.585780 18.478670 B
8674 B -18.521260 -19.280650 17.574830 B
8675 B -18.769950 -19.677270 16.643330 B
8676 B -19.649990 -19.607400 16.283580 B
8677 B -20.501300 -19.232910 16.099180 B
8678 A -20.471630 -18.402930 15.595500 A
8679 A -19.546630 -18.243870 15.639470 A
8680 A -18.593580 -18.317710 15.681440 A
8681 A -17.844480 -18.848890 15.455210 A
8682 A -17.336530 -19.627710 15.305240 A
8683 A -16.940620 -20.482170 15.592110 A
8684 A -7.197048 -13.415690 -12.658630 A
8685 A -8.054203 -13.266370 -12.293950 A
8686 A -8.382921 -12.675050 -11.582630 A
8687 A -9.097451 -12.611360 -10.945930 A
8688 A -8.997960 -11.745720 -10.526840 A
8689 A -8.620929 -11.021540 -10.096050 A
8690 B -7.698247 -11.002730 -9.728142 B
8691 B -7.542807 -11.960600 -9.692308 B
8692 B -7.173403 -12.678570 -10.192080 B
8693 B -6.931102 -13.604160 -10.201350 B
8694 B -6.339197 -13.311730 -9.582786 B
8695 B -7.086203 -13.545280 -9.013770 B
8696 B -7.645164 -14.059380 -8.426470 B
8697 A -8.512815 -13.941450 -8.033186 A
8698 A -8.857687 -14.147280 -7.164009 A
8699 A -8.536611 -14.732270 -6.482275 A
8700 A -7.757718 -15.049670 -6.066735 A
8701 A -7.328264 -15.920810 -6.245235 A
8702 A -7.064899 -16.747110 -6.674939 A
8703 A -1.202307 -23.242850 -3.337783 A
8704 A -1.948667 -22.625840 -3.634446 A
8705 A -2.635401 -21.982780 -3.596995 A
8706 A -3.428352 -22.543650 -3.542433 A
8707 A -3.395965 -23.181520 -2.784127 A
8708 A -3.132077 -23.633110 -3.709127 A
8709 B -3.185910 -23.124200 -4.582461 B
8710 B -4.061863 -22.984670 -5.033135 B
8711 B -4.236374 -22.794940 -5.914991 B
8712 B -4.167020 -23.211620 -6.773259 B
8713 B -4.583793 -23.968450 -7.219648 B
8714 B -5.078291 -24.556930 -7.828636 B
8715 B -4.292632 -24.909650 -8.283583 B
8716 A -3.601971 -24.627790 -7.662566 A
8717 A -2.851379 -24.679870 -7.039446 A
8718 A -2.023276 -24.635450 -6.415303 A
8719 A -1.093176 -24.327760 -6.211791 A
8720 A -0.418657 -24.488980 -6.825182 A
8721 A 0.021679 24.609890 -6.880061 A
8722 A -15.977270 -20.553750 8.536405 A
8723 A -15.256920 -21.103630 8.329652 A
8724 A -15.504750 -21.771380 7.719069 A
8725 A -15.748160 -22.437560 7.057866 A
8726 A -15.339740 -23.258360 6.753877 A
8727 A -14.518190 -23.568000 7.114137 A
8728 B -13.943910 -22.900250 7.447646 B
8729 B -13.505800 -22.296550 8.059789 B
8730 B -13.859790 -21.430740 7.788348 B
8731 B -14.333960 -21.025950 7.029987 B
8732 B -14.493260 -21.427280 6.162732 B
8733 B -14.127280 -22.340700 6.159302 B
8734 B -13.291530 -22.790310 6.372091 B
8735 A -12.468990 -22.316090 6.515774 A
8736 A -11.988160 -21.635440 6.075146 A
8737 A -11.779250 -20.964910 5.418082 A
8738 A -12.334690 -20.816900 4.620452 A
8739 A -13.031460 -21.378280 4.248552 A
8740 A -13.699480 -21.956270 3.851476 A
8741 A 11.730470 18.721590 21.946650 A
8742 A 11.816670 19.032830 21.000660 A
8743 A 11.419380 19.322690 20.145190 A
8744 A 11.490170 19.634670 19.231370 A
8745 A 11.611950 19.651780 18.249730 A
8746 A 11.111330 19.678990 17.441170 A
8747 B 11.862960 20.130850 17.055030 B
8748 B 12.848280 20.118770 16.986820 B
8749 B 13.595920 19.882720 17.597030 B
8750 B 14.011690 19.540060 18.431410 B
8751 B 13.994860 18.767280 18.994350 B
8752 B 14.247650 18.116100 19.623040 B
8753 B 14.078840 17.764900 20.488730 B
8754 A 14.739260 17.094220 20.657010 A
8755 A 15.612750 16.683690 20.788200 A
8756 A 16.606650 16.669930 20.777330 A
8757 A 17.404020 16.190280 20.959460 A
8758 A 17.905420 15.945780 20.187610 A
8759 A 17.914780 15.785080 19.254240 A
8760 A 19.523310 10.054770 19.071060 A
8761 A 18.697370 9.683131 18.639910 A
8762 A 18.202240 9.142903 18.050600 A
8763 A 17.982930 8.414713 17.469120 A
8764 A 17.511370 7.886731 16.789590 A
8765 A 17.117260 7.616747 15.959820 A
8766 B 17.721550 8.009103 15.258870 B
8767 B 18.452470 7.829448 15.854700 B
8768 B 18.975530 7.942461 16.642980 B
8769 B 19.474140 7.884266 17.450460 B
8770 B 20.284310 7.552946 17.162820 B
8771 B 20.745100 7.938392 16.420830 B
8772 B 21.136700 8.319663 15.681400 B
8773 A 20.956920 8.438048 14.758070 A
8774 A 20.020110 8.636885 14.594540 A
8775 A 19.264520 8.414616 14.119410 A
8776 A 19.452670 7.566370 13.619430 A
8777 A 19.806910 6.620681 13.681540 A
8778 A 20.530800 6.131601 14.087450 A
8779 A -24.340490 3.141882 -10.806640 A
8780 A -24.922740 3.057214 -11.596180 A
8781 A -24.928650 3.096893 -12.568290 A
8782 A -24.207670 3.140455 -13.187270 A
8783 A -23.312200 2.916408 -12.920040 A
8784 A -22.644250 2.767176 -12.247480 A
8785 B -22.723810 3.465629 -11.638540 B
8786 B -23.084420 4.328788 -11.515350 B
8787 B -23.401820 4.353535 -12.464250 B
8788 B -23.531760 4.276415 -13.441800 B
8789 B -23.399310 3.795768 -14.231780 B
8790 B -24.263080 4.148153 -14.379700 B
8791 B -24.498610 5.059576 -14.166540 B
8792 A -24.790460 5.294862 -13.289980 A
8793 A 24.503090 5.274370 -12.569600 A
8794 A 23.608730 5.096069 -12.844490 A
8795 A 23.570450 4.462566 -13.534700 A
8796 A 23.472900 3.747598 -14.173950 A
8797 A 23.107880 3.226134 -14.904750 A
8798 A 17.761650 -6.995501 2.568388 A
8799 A 18.158440 -6.889562 1.682339 A
8800 A 18.972550 -7.092085 1.106287 A
8801 A 19.891960 -7.300131 0.922913 A
8802 A 20.595420 -7.865689 0.719635 A
8803 A 20.331860 -8.725373 0.971666 A
8804 B 19.912490 -9.581694 0.753345 B
8805 B 19.121080 -9.491563 0.225378 B
8806 B 19.105970 -8.879460 -0.473967 B
8807 B 19.558810 -8.070531 -0.653397 B
8808 B 19.707780 -7.137635 -0.528062 B
8809 B 19.382310 -6.272448 -0.325642 B
8810 B 20.203570 -6.369312 0.153849 B
8811 A 20.277760 -6.004821 1.058157 A
8812 A 20.264170 -5.859749 2.018483 A
8813 A 20.370050 -6.156742 2.922658 A
8814 A 20.451390 -6.964555 3.488851 A
8815 A 21.160490 -7.442992 3.043734 A
8816 A 21.837510 -7.690639 2.423521 A
8817 A -0.778779 16.969870 16.763020 A
8818 A -0.793788 17.273610 15.856340 A
8819 A -1.144679 16.567120 15.333780 A
8820 A -0.181222 16.399450 15.247050 A
8821 A 0.590413 16.017780 14.800780 A
8822 A 1.047322 15.167880 14.786560 A
8823 B 0.637859 14.323010 14.654460 B
8824 B -0.282062 14.137510 14.992040 B
8825 B -0.683992 14.580750 15.733060 B
8826 B 0.027000 15.036310 16.147890 B
8827 B 0.320307 14.864950 17.038880 B
8828 B 0.408897 14.578380 17.952290 B
8829 B 0.398858 13.851890 18.591660 B
8830 A 1.273213 13.507890 18.810370 A
8831 A 2.063644 13.001240 19.008170 A
8832 A 1.725966 12.657990 18.181360 A
8833 A 1.019250 12.196900 17.705730 A
8834 A 0.516537 12.016350 18.535640 A
8835 A 0.825460 11.771500 19.382880 A
8836 A -11.640860 -8.512747 12.060480 A
8837 A -12.223560 -9.144352 12.555810 A
8838 A -13.029720 -9.493002 12.871870 A
8839 A -13.602550 -9.773992 13.544310 A
8840 A -14.483070 -10.158770 13.908720 A
8841 A -15.110600 -10.131310 14.608680 A
8842 B -14.713690 -9.339786 14.804620 B
8843 B -13.922250 -8.684180 14.914220 B
8844 B -13.209430 -8.361890 14.444010 B
8845 B -12.539920 -8.929511 13.997600 B
8846 B -11.771010 -9.427529 13.844230 B
8847 B -11.271260 -10.270860 14.060140 B
8848 B -10.828480 -11.026490 14.297020 B
8849 A -9.999640 -10.590970 14.139600 A
8850 A -9.397058 -10.014210 14.573450 A
8851 A -9.720863 -9.092433 14.604470 A
8852 A -10.060690 -8.461951 13.935340 A
8853 A -9.360403 -8.230719 13.288430 A
8854 A -8.872107 -8.813273 12.668120 A
8855 A -10.530300 -19.116150 15.753280 A
8856 A -9.645793 -19.395640 16.056420 A
8857 A -8.841451 -19.862540 16.415370 A
8858 A -8.047138 -19.593790 16.921320 A
8859 A -7.689596 -19.736730 17.841950 A
8860 A -6.774895 -19.568470 18.071520 A
8861 B -6.176870 -19.649860 18.804490 B
8862 B -5.629761 -18.884470 18.812960 B
8863 B -5.037826 -18.979800 18.038860 B
8864 B -4.805113 -19.320950 17.181120 B
8865 B -5.408095 -19.935890 16.684330 B
8866 B -6.041749 -20.426410 16.184680 B
8867 B -5.897521 -21.096800 15.521280 B
8868 A -5.350517 -21.654960 16.023030 A
8869 A -4.881901 -21.685380 16.835300 A
8870 A -4.575852 -21.787300 17.718890 A
8871 A -5.261440 -22.203170 18.235230 A
8872 A -6.016884 -22.632880 17.800280 A
8873 A -6.463234 -23.225030 17.180940 A
8874 A -6.954935 -3.339490 -7.833300 A
8875 A -6.175842 -2.817798 -8.024767 A
8876 A -5.682001 -2.020252 -7.838664 A
8877 A -5.159029 -1.205162 -8.089728 A
8878 A -4.378461 -0.636266 -8.175209 A
8879 A -3.588154 -0.523680 -8.704150 A
8880 B -3.035747 -0.735070 -9.466783 B
8881 B -2.780475 -1.337287 -10.150150 B
8882 B -2.334500 -2.174020 -10.379030 B
8883 B -2.141689 -2.941709 -10.938660 B
8884 B -2.233803 -3.686085 -11.523950 B
8885 B -2.168424 -4.161891 -12.368110 B
8886 B -2.321406 -4.413754 -13.310880 B
8887 A -1.473375 -4.736283 -13.627720 A
8888 A -0.676970 -5.013312 -13.165450 A
8889 A 0.087405 -5.189177 -12.548360 A
8890 A 0.993958 -5.127097 -12.242120 A
8891 A 1.648579 -5.767551 -12.600150 A
8892 A 2.114411 -6.444606 -13.130630 A
8893 A 20.456560 -8.243594 -2.099218 A
8894 A 20.392320 -7.435450 -2.696965 A
8895 A 21.034900 -6.694976 -2.495075 A
8896 A 21.386920 -6.380560 -3.285796 A
8897 A 21.823600 -6.231037 -4.138973 A
8898 A 21.091600 -5.564898 -4.037254 A
8899 B 20.256240 -5.949814 -3.722431 B
8900 B 19.450470 -6.485163 -3.729904 B
8901 B 18.898060 -7.103025 -4.152343 B
8902 B 18.141440 -6.789688 -4.639346 B
8903 B 17.899560 -6.084959 -4.072035 B
8904 B 18.420200 -5.253287 -4.012617 B
8905 B 19.136270 -4.676858 -3.762627 B
8906 A 19.651670 -4.106977 -3.238082 A
8907 A 20.028070 -3.777920 -2.405449 A
8908 A 20.397010 -4.257473 -1.644483 A
8909 A 20.694320 -4.111876 -0.735824 A
8910 A 21.403390 -4.118076 -0.054465 A
8911 A 22.151050 -4.461901 0.422952 A
8912 A 12.849410 -10.571530 9.910728 A
8913 A 12.388160 -9.794902 9.615844 A
8914 A 12.301400 -9.157790 8.897912 A
8915 A 12.287980 -8.249590 8.601437 A
8916 A 12.851000 -7.475881 8.388233 A
8917 A 13.424220 -6.871050 7.878366 A
8918 B 14.060820 -6.152105 7.758536 B
8919 B 14.344280 -5.241817 7.987754 B
8920 B 13.428150 -5.363589 8.168123 B
8921 B 12.698720 -5.947564 8.374067 B
8922 B 12.115530 -6.571074 7.851725 B
8923 B 11.555750 -7.124814 7.326415 B
8924 B 10.627830 -6.932700 7.028155 B
8925 A 10.039670 -6.905359 6.278339 A
8926 A 9.136086 -6.948535 5.976284 A
8927 A 8.210751 -6.855554 5.753292 A
8928 A 7.285396 -6.610906 5.754926 A
8929 A 6.541660 -6.318852 6.269812 A
8930 A 6.660479 -6.182382 7.187256 A
8931 A 0.659293 20.347890 -7.185988 A
8932 A 1.448190 20.858360 -7.155566 A
8933 A 2.025660 21.232060 -7.870522 A
8934 A 2.576484 20.479280 -8.211677 A
8935 A 3.258840 19.855630 -8.039056 A
8936 A 3.807660 19.440920 -7.347575 A
8937 B 4.599042 19.213710 -6.825904 B
8938 B 4.702157 18.240060 -6.887939 B
8939 B 4.578650 17.313460 -6.984121 B
8940 B 4.653202 16.434550 -7.243056 B
8941 B 4.226548 16.244410 -8.110280 B
8942 B 3.621752 16.503030 -8.856523 B
8943 B 3.249577 17.085380 -9.562654 B
8944 A 2.873604 17.735060 -10.130180 A
8945 A 2.212793 18.395760 -10.333630 A
8946 A 1.601984 19.172310 -10.324640 A
8947 A 0.997467 19.789770 -10.771040 A
8948 A 0.272743 20.398430 -10.644100 A
8949 A -0.214950 21.206000 -10.510200 A
8950 A 14.534190 -20.992320 11.304180 A
8951 A 14.882350 -21.743780 10.898730 A
8952 A 15.077060 -22.170200 10.049720 A
8953 A 15.476590 -21.721170 9.282730 A
8954 A 15.226110 -20.875560 8.954547 A
8955 A 15.109990 -19.983430 9.236098 A
8956 B 14.564310 -19.370000 9.727169 B
8957 B 13.715290 -18.984190 10.179840 B
8958 B 14.368840 -19.166050 10.847010 B
8959 B 14.941130 -19.257270 11.605730 B
8960 B 15.003810 -18.240830 11.727860 B
8961 B 15.118380 -17.828420 10.876190 B
8962 B 15.251770 -17.582740 9.997767 B
8963 A 15.933690 -18.301500 9.598449 A
8964 A 16.832470 -18.592680 9.613270 A
8965 A 17.494310 -18.678510 10.277570 A
8966 A 18.379750 -18.758840 10.789640 A
8967 A 19.024390 -18.205380 11.226430 A
8968 A 19.118640 -17.479720 11.862190 A
8969 A 17.584290 -17.972070 -3.641178 A
8970 A 16.733030 -17.584950 -3.871900 A
8971 A 15.896170 -17.122920 -3.884208 A
8972 A 15.072780 -17.466680 -4.296353 A
8973 A 14.214270 -17.124580 -4.080523 A
8974 A 14.134670 -16.158800 -4.108930 A
8975 B 13.985490 -15.434070 -3.524454 B
8976 B 13.976210 -15.971010 -2.740686 B
8977 B 13.666540 -16.459180 -1.992926 B
8978 B 13.256500 -17.162250 -1.508447 B
8979 B 12.495950 -17.687940 -1.137318 B
8980 B 11.640430 -17.682010 -0.702243 B
8981 B 10.987870 -17.179070 -0.204075 B
8982 A 10.752170 -16.285310 -0.524491 A
8983 A 11.309190 -15.656130 -1.068601 A
8984 A 11.639760 -15.700960 -2.001623 A
8985 A 11.622230 -15.606980 -2.961213 A
8986 A 11.284840 -15.511240 -3.863103 A
8987 A 10.748110 -15.819710 -4.611625 A
8988 A 0.165722 17.296890 -5.210935 A
8989 A 0.643284 17.847720 -4.556893 A
8990 A 1.487045 18.154580 -4.247190 A
8991 A 2.111199 18.692530 -3.773703 A
8992 A 2.181684 19.554840 -3.347450 A
8993 A 2.022453 20.512240 -3.273959 A
8994 B 1.399946 21.214560 -3.086262 B
8995 B 0.500249 21.191090 -2.769630 B
8996 B -0.229266 21.313670 -2.174944 B
8997 B -0.595059 21.548030 -1.329647 B
8998 B -0.827289 21.954010 -0.512230 B
8999 B -0.604474 22.322170 0.387038 B
9000 B -0.176972 23.080420 0.693903 B
9001 A 0.395306 23.821200 0.810710 A
9002 A 1.180962 24.363820 0.706367 A
9003 A 1.310162 24.437970 -0.248152 A
9004 A 1.854825 23.968820 -0.918180 A
9005 A 2.555372 23.304610 -0.735097 A
9006 A 3.020736 22.622020 -0.202589 A
9007 A -11.737100 -10.821060 -1.877986 A
9008 A -11.096590 -11.205020 -1.278609 A
9009 A -10.764810 -11.755000 -0.560289 A
9010 A -11.121090 -12.593210 -0.314570 A
9011 A -11.575790 -13.312170 0.086257 A
9012 A -12.068890 -14.066100 0.517134 A
9013 B -11.914710 -14.423420 1.349176 B
9014 B -11.212420 -14.174670 1.963731 B
9015 B -10.310020 -14.526540 2.204646 B
9016 B -9.648527 -15.059670 1.655293 B
9017 B -10.480860 -15.074110 1.104160 B
9018 B -10.614770 -15.178950 0.140426 B
9019 B -10.584700 -15.150790 -0.818900 B
9020 A -10.919990 -14.627250 -1.565017 A
9021 A -11.088160 -13.936600 -2.168003 A
9022 A -10.616610 -14.855490 -2.577742 A
9023 A -10.195250 -15.639730 -2.090175 A
9024 A -10.294050 -16.247640 -1.357275 A
9025 A -10.390090 -17.065030 -0.855511 A
9026 A -11.165310 -3.071449 15.856310 A
9027 A -10.776480 -3.021390 14.983050 A
9028 A -10.246270 -2.175283 14.875900 A
9029 A -9.817214 -2.111877 15.740390 A
9030 A -10.074320 -2.337876 16.599580 A
9031 A -10.799740 -2.333565 17.203440 A
9032 B -11.618160 -3.069015 17.148360 B
9033 B -11.864750 -2.820927 18.058780 B
9034 B -11.882100 -1.956812 18.554970 B
9035 B -12.614090 -1.367611 18.856490 B
9036 B -12.766120 -1.783045 18.014650 B
9037 B -13.047350 -1.629577 17.070590 B
9038 B -13.388810 -1.662687 16.182410 B
9039 A -12.924190 -1.376455 15.388560 A
9040 A -12.352360 -0.580900 15.306730 A
9041 A -11.991690 0.253506 15.573410 A
9042 A -12.021080 1.154509 16.036300 A
9043 A -12.635660 1.826994 16.549950 A
9044 A -13.648580 2.038404 16.442200 A
9045 A -18.979650 20.164470 7.248394 A
9046 A -18.767850 19.341870 6.761925 A
9047 A -18.420050 19.234720 5.878634 A
9048 A -18.090130 19.729870 5.131824 A
9049 A -17.476700 20.487220 5.170423 A
9050 A -16.630710 20.930550 5.268578 A
9051 B -15.846290 21.433640 5.058492 B
9052 B -15.818500 21.733850 5.946831 B
9053 B -15.710210 20.762240 6.300627 B
9054 B -15.722470 19.805880 6.085017 B
9055 B -16.090560 18.991360 5.774177 B
9056 B -16.458680 18.633500 4.953601 B
9057 B -16.610980 18.400650 4.015144 B
9058 A -16.738350 18.808020 3.173681 A
9059 A -16.283280 19.637220 3.246912 A
9060 A -16.241800 20.604410 3.275701 A
9061 A -16.766290 21.270700 3.748650 A
9062 A -17.271390 21.905660 4.246192 A
9063 A -18.163290 22.182290 4.086224 A
9064 A -14.952350 -7.573717 2.872869 A
9065 A -15.696190 -8.121656 3.129437 A
9066 A -16.640800 -8.210155 3.038445 A
9067 A -17.571940 -8.102534 3.087798 A
9068 A -18.141430 -8.774567 2.659567 A
9069 A -18.535480 -9.607552 2.409773 A
9070 B -18.861510 -10.518290 2.255676 B
9071 B -18.921410 -11.466490 2.418248 B
9072 B -18.544380 -12.285170 2.104691 B
9073 B -18.390730 -12.367510 1.119208 B
9074 B -17.608340 -12.248360 0.549407 B
9075 B -17.138530 -11.419850 0.387415 B
9076 B -16.650390 -10.616680 0.582566 B
9077 A -16.206260 -9.845057 0.936098 A
9078 A -16.524740 -9.123884 1.462371 A
9079 A -17.167260 -8.416926 1.521441 A
9080 A -17.613270 -8.393418 0.670786 A
9081 A -18.331540 -8.227033 0.032844 A
9082 A -18.880750 -8.698721 -0.584495 A
9083 A 23.574130 24.560570 7.303169 A
9084 A 24.212400 -24.710230 6.981393 A
9085 A 24.900450 -24.756470 6.298021 A
9086 A -24.623760 24.736030 7.037190 A
9087 A -24.127030 24.504870 6.348873 A
9088 A -24.426900 24.266560 5.530027 A
9089 B 24.825620 24.428280 4.824245 B
9090 B 24.946510 24.904540 3.984649 B
9091 B -24.375870 -24.554480 3.497781 B
9092 B -23.763370 -24.014380 2.865321 B
9093 B -23.099810 -23.592180 2.154446 B
9094 B -22.511940 -23.603850 1.329871 B
9095 B -23.273540 -23.234630 0.768735 B
9096 A -24.114590 -22.948120 1.041175 A
9097 A -24.758860 -23.184290 1.724617 A
9098 A 24.679110 -24.052020 1.622380 A
9099 A -24.790100 24.943410 1.656961 A
9100 A -24.128090 24.287930 1.679213 A
9101 A -23.487790 23.673650 1.809899 A
9102 A 11.981090 -13.665630 18.445870 A
9103 A 11.877650 -12.840900 18.016610 A
9104 A 11.779580 -11.910420 18.343680 A
9105 A 11.959790 -11.138570 18.868430 A
9106 A 12.104910 -10.356000 18.317210 A
9107 A 12.143040 -9.450268 18.419060 A
9108 B 12.080390 -9.470366 19.315960 B
9109 B 11.721360 -8.786567 19.786640 B
9110 B 12.178450 -8.434937 20.578660 B
9111 B 13.082880 -8.714607 20.853160 B
9112 B 13.947760 -9.207942 20.785130 B
9113 B 14.119370 -9.110212 19.749510 B
9114 B 14.551980 -8.487558 19.094310 B
9115 A 13.972700 -7.870553 19.565530 A
9116 A 13.909500 -6.936971 19.918950 A
9117 A 13.791040 -6.020700 19.718520 A
9118 A 14.175640 -5.641503 18.930070 A
9119 A 13.700830 -4.767341 18.839440 A
9120 A 13.184430 -3.956248 19.050980 A
9121 A 9.137856 18.759890 -20.022060 A
9122 A 9.465960 18.545250 -20.949560 A
9123 A 8.798693 18.917220 -21.516590 A
9124 A 8.234839 18.413410 -22.180010 A
9125 A 7.275971 18.328990 -22.020830 A
9126 A 6.537247 18.730630 -21.605020 A
9127 B 5.603253 18.857630 -21.791880 B
9128 B 4.667980 18.936850 -22.071270 B
9129 B 3.789780 18.976590 -22.391550 B
9130 B 4.051480 19.816300 -22.002390 B
9131 B 4.525622 19.778480 -21.174420 B
9132 B 5.129342 19.688150 -20.357480 B
9133 B 5.544244 20.060800 -19.557250 B
9134 A 6.485473 19.828240 -19.441580 A
9135 A 7.006652 20.309850 -20.157710 A
9136 A 7.708927 20.438920 -20.887620 A
9137 A 8.346264 20.349090 -21.650890 A
9138 A 9.019140 20.649260 -22.276870 A
9139 A 9.248411 20.607010 -23.244680 A
9140 A -2.780109 18.517680 23.321580 A
9141 A -2.463221 18.839960 24.189810 A
9142 A -2.052699 19.010600 -24.857640 A
9143 A -2.469163 19.134400 -24.046060 A
9144 A -2.646005 19.890170 -23.494260 A
9145 A -2.437614 20.027160 -22.531020 A
9146 B -2.448464 19.112350 -22.373890 B
9147 B -1.875945 18.842930 -21.606070 B
9148 B -2.323108 17.859400 -21.849100 B
9149 B -2.223127 16.916110 -22.129430 B
9150 B -2.959474 16.458530 -21.679040 B
9151 B -3.793027 16.545850 -22.025790 B
9152 B -4.737206 17.167300 -22.429640 B
9153 A -5.248542 16.419970 -22.788670 A
9154 A -5.540349 16.830110 -23.685810 A
9155 A -4.729997 17.315420 -24.034360 A
9156 A -4.335104 16.345620 -23.695110 A
9157 A -4.822890 15.701320 -24.375320 A
9158 A -5.034299 15.800300 24.582220 A
9159 A -20.770570 10.352270 0.734182 A
9160 A -20.298700 9.758799 1.408867 A
9161 A -19.651950 9.580628 2.108231 A
9162 A -18.726420 9.720056 1.992887 A
9163 A -18.477930 10.508480 1.500578 A
9164 A -18.655520 11.218740 0.862783 A
9165 B -19.466410 11.680280 0.457963 B
9166 B -20.384330 11.714500 0.647192 B
9167 B -21.273310 11.948320 0.943933 B
9168 B -22.002250 12.185770 1.562083 B
9169 B -22.569210 12.806800 2.031853 B
9170 B -22.764810 13.419330 2.704733 B
9171 B -22.492070 14.223930 3.176361 B
9172 A -21.859650 14.925530 3.373519 A
9173 A -21.082580 15.351400 2.935963 A
9174 A -20.155820 15.354000 2.631710 A
9175 A -19.239000 15.557810 2.742692 A
9176 A -19.126690 16.501590 2.743629 A
9177 A -19.493770 17.376030 2.941534 A
9178 A -1.621892 20.382470 -17.581760 A
9179 A -2.139374 20.595400 -18.322010 A
9180 A -2.769640 21.110870 -18.848520 A
9181 A -3.215973 21.748330 -19.445080 A
9182 A -3.930163 21.986850 -20.072580 A
9183 A -4.435889 21.799670 -20.892240 A
9184 B -5.211997 21.510680 -21.412180 B
9185 B -6.124216 21.862290 -21.376870 B
9186 B -6.251652 22.201680 -20.438170 B
9187 B -6.232218 22.072920 -19.503680 B
9188 B -6.628448 22.259720 -18.620190 B
9189 B -6.379763 22.684380 -17.754300 B
9190 B -6.071381 22.708610 -16.870650 B
9191 A -5.302880 22.886110 -16.401800 A
9192 A -4.884257 23.518770 -17.030780 A
9193 A -4.505260 24.283270 -17.476780 A
9194 A -3.989929 -24.794390 -17.231750 A
9195 A -3.672929 -24.547680 -16.326950 A
9196 A -4.259965 -24.335980 -15.614580 A
9197 A -19.846310 -20.876510 -22.808600 A
9198 A -19.019890 -20.371060 -22.940290 A
9199 A -18.317570 -20.495530 -22.299730 A
9200 A -17.992540 -21.364630 -22.215470 A
9201 A -17.903150 -22.301560 -22.440400 A
9202 A -18.205210 -23.024510 -23.032010 A
9203 B -18.537840 -23.828390 -23.334940 B
9204 B -18.651470 -24.593320 -23.929430 B
9205 B -19.155190 24.498750 -24.136550 B
9206 B -19.909520 24.169580 -23.641430 B
9207 B -20.421820 24.155280 -22.843760 B
9208 B -20.604530 23.726470 -22.025470 B
9209 B -20.578460 22.772560 -21.708340 B
9210 A -20.326980 22.022890 -21.061900 A
9211 A -20.707910 21.418880 -20.244540 A
9212 A -20.782870 22.170220 -19.571720 A
9213 A -21.024520 22.964640 -19.117610 A
9214 A -21.783330 22.975000 -19.737080 A
9215 A -22.289470 23.635170 -20.199740 A
9216 A -21.790240 21.509100 2.982655 A
9217 A -21.034870 21.494690 3.602306 A
9218 A -20.897040 22.421240 4.111573 A
9219 A -20.547440 23.350530 4.270386 A
9220 A -21.066300 23.816140 4.865611 A
9221 A -20.898080 24.726630 4.867295 A
9222 B -21.033860 -24.362240 4.285304 B
9223 B -21.483100 -24.632470 3.489048 B
9224 B -22.110760 -23.920530 3.359203 B
9225 B -21.432720 -23.161170 3.466144 B
9226 B -21.480460 -22.488270 2.804202 B
9227 B -20.797170 -21.980960 2.433779 B
9228 B -20.031450 -21.507110 2.845357 B
9229 A -19.458150 -22.344040 2.756229 A
9230 A -19.048530 -22.778590 3.525651 A
9231 A -19.595470 -23.188570 4.305739 A
9232 A -19.509650 -24.007710 3.716516 A
9233 A -19.148010 -23.778750 2.887873 A
9234 A -18.312070 -23.432240 2.551244 A
9235 A -1.537858 -15.237340 17.062270 A
9236 A -1.425888 -14.462640 16.441870 A
9237 A -1.608567 -13.502060 16.433720 A
9238 A -1.171697 -13.100290 15.685740 A
9239 A -0.308210 -12.804780 15.660020 A
9240 A 0.186987 -12.118680 16.118420 A
9241 B 0.785156 -11.627840 16.656870 B
9242 B 0.154446 -10.961670 16.932380 B
9243 B 0.204823 -10.980480 17.884000 B
9244 B 0.114383 -10.947740 18.832690 B
9245 B 0.271591 -11.568590 19.509360 B
9246 B 0.206333 -12.007070 20.393100 B
9247 B -0.081708 -12.896400 20.553380 B
9248 A 0.292450 -13.394600 19.846070 A
9249 A 0.467353 -13.032900 19.026930 A
9250 A 0.424208 -12.816420 18.104820 A
9251 A -0.145483 -13.241630 17.390130 A
9252 A 0.137471 -13.914960 16.814770 A
9253 A 0.934660 -14.343470 16.469180 A
9254 A 18.142500 16.964850 8.905192 A
9255 A 17.948310 16.120710 8.574839 A
9256 A 17.615670 15.263140 8.356400 A
9257 A 16.755770 14.963840 8.005388 A
9258 A 15.940540 14.847830 8.568277 A
9259 A 15.402610 15.473380 9.109155 A
9260 B 14.743780 15.611160 9.792150 B
9261 B 15.384450 16.297910 9.759359 B
9262 B 16.010280 16.951900 9.996458 B
9263 B 16.496450 17.765050 10.067160 B
9264 B 16.116750 18.570660 10.426070 B
9265 B 15.228750 18.248270 10.305560 B
9266 B 14.268480 18.152560 10.297320 B
9267 A 13.403740 18.501830 10.040010 A
9268 A 13.442870 19.245390 9.400579 A
9269 A 14.287550 19.321530 8.962600 A
9270 A 14.995070 19.366730 8.352681 A
9271 A 15.647310 18.862600 7.899141 A
9272 A 15.987890 17.973930 7.806772 A
9273 A -6.872960 7.328351 12.878490 A
9274 A -7.409362 7.754230 12.166680 A
9275 A -8.036491 6.896811 12.044190 A
9276 A -8.265742 6.221041 11.419840 A
9277 A -7.828325 6.419123 10.536110 A
9278 A -6.935776 5.952294 10.403220 A
9279 B -6.799889 6.480636 11.163230 B
9280 B -6.262409 7.236361 11.258320 B
9281 B -7.033536 7.718955 10.884410 B
9282 B -7.677500 8.370204 10.546210 B
9283 B -8.184865 9.123981 10.160430 B
9284 B -7.730070 9.712276 10.836360 B
9285 B -7.290436 9.932554 11.655970 B
9286 A -7.078211 10.600880 12.237550 A
9287 A -7.587152 11.279020 11.777250 A
9288 A -8.364094 11.025600 11.338400 A
9289 A -8.895880 10.576770 12.001580 A
9290 A -9.284204 10.104310 12.818820 A
9291 A -8.539820 9.876402 13.403840 A
9292 A -13.059320 -5.328328 -0.734164 A
9293 A -12.230350 -5.606248 -0.378865 A
9294 A -11.319310 -5.882269 -0.186226 A
9295 A -10.468990 -6.348260 -0.015016 A
9296 A -9.936891 -6.837029 -0.650952 A
9297 A -9.208346 -7.059189 -1.223592 A
9298 B -8.255612 -7.192011 -1.286008 B
9299 B -7.595803 -7.867365 -1.519528 B
9300 B -7.280397 -8.759182 -1.416446 B
9301 B -7.315964 -9.725083 -1.282723 B
9302 B -8.230650 -9.838748 -1.023984 B
9303 B -9.094741 -9.426765 -1.004290 B
9304 B -9.935954 -9.050246 -0.656205 B
9305 A -10.727200 -8.864169 -0.226028 A
9306 A -11.415510 -8.891736 0.442816 A
9307 A -11.831510 -8.918118 1.282544 A
9308 A -11.443480 -8.637440 2.214253 A
9309 A -10.532960 -8.315146 2.110295 A
9310 A -9.743223 -7.812643 1.923138 A
9311 A -1.702487 21.804000 1.540164 A
9312 A -1.436366 22.543210 0.951938 A
9313 A -1.275873 23.539190 1.017334 A
9314 A -1.738895 23.739500 0.200461 A
9315 A -1.248213 24.475280 -0.189659 A
9316 A -0.684613 24.830990 0.420592 A
9317 B -0.773373 24.721280 1.370253 B
9318 B -1.103090 -24.331790 1.133242 B
9319 B -1.540185 -24.195350 0.262484 B
9320 B -0.880525 -24.157590 -0.441387 B
9321 B -0.163554 -24.277000 -1.080417 B
9322 B 0.378402 -23.630160 -1.520609 B
9323 B 1.034435 -24.312780 -1.543574 B
9324 A 1.783812 -24.909030 -1.406132 A
9325 A 2.329814 -24.793540 -0.621977 A
9326 A 2.037657 -23.828650 -0.686906 A
9327 A 2.093219 -23.051440 -1.327827 A
9328 A 1.501262 -22.506530 -1.726276 A
9329 A 0.866735 -21.858150 -1.350429 A
9330 A -1.793405 -1.721681 10.198610 A
9331 A -2.503480 -1.686110 10.847680 A
9332 A -3.411861 -2.014160 10.960080 A
9333 A -3.709935 -2.582790 10.256680 A
9334 A -3.716843 -3.263849 9.615711 A
9335 A -3.304897 -3.978526 9.189950 A
9336 B -3.186240 -4.820789 9.580092 B
9337 B -3.419251 -5.721626 9.715001 B
9338 B -3.561783 -6.323883 10.441920 B
9339 B -3.044759 -7.023675 10.875430 B
9340 B -3.527654 -7.618553 10.283950 B
9341 B -4.373501 -7.981300 10.599080 B
9342 B -4.902939 -7.481334 9.991977 B
9343 A -4.769000 -6.510521 9.924569 A
9344 A -4.614126 -6.504336 10.884000 A
9345 A -5.444460 -6.407017 11.359930 A
9346 A -5.537746 -6.092636 12.277360 A
9347 A -4.774275 -5.716430 12.671920 A
9348 A -3.942190 -5.401696 13.009180 A
9349 A -6.250285 12.735980 9.302809 A
9350 A -6.427793 12.519900 8.357791 A
9351 A -6.927523 11.851880 8.008149 A
9352 A -7.039247 11.155590 8.702704 A
9353 A -7.076948 10.215080 9.305178 A
9354 A -6.162342 9.879200 9.135013 A
9355 B -5.420686 9.259587 9.234378 B
9356 B -4.523774 9.575025 9.451813 B
9357 B -4.865177 10.035160 10.254670 B
9358 B -4.259246 10.179640 11.099610 B
9359 B -3.728976 9.969264 11.951860 B
9360 B -2.908536 10.624600 11.672200 B
9361 B -2.842738 10.506950 12.668040 B
9362 A -2.461230 10.122590 13.342390 A
9363 A -2.698879 9.833515 14.271790 A
9364 A -3.266615 9.014109 13.869570 A
9365 A -3.636677 8.171068 14.405080 A
9366 A -2.828415 8.357189 14.936750 A
9367 A -1.865337 8.075099 15.005570 A
9368 A 19.664740 6.168006 16.928580 A
9369 A 19.736310 6.236212 15.957740 A
9370 A 19.146600 6.032362 15.225660 A
9371 A 18.652310 6.238372 14.427690 A
9372 A 18.307660 6.260821 13.527940 A
9373 A 18.027400 6.585724 12.648750 A
9374 B 17.561470 7.105952 11.997100 B
9375 B 16.727440 7.499572 11.750550 B
9376 B 15.983230 7.653797 12.261080 B
9377 B 16.345070 7.361857 13.146740 B
9378 B 15.884430 7.405329 14.009390 B
9379 B 15.478450 7.742146 14.851020 B
9380 B 15.883560 8.442650 15.358110 B
9381 A 16.083570 8.914320 14.544320 A
9382 A 16.517010 8.659159 13.720420 A
9383 A 17.461060 8.610055 13.545700 A
9384 A 18.380750 8.895893 13.797050 A
9385 A 18.435720 9.511460 14.535220 A
9386 A 18.758680 10.118190 15.234870 A
9387 A 23.781360 11.458000 10.643540 A
9388 A 24.398940 11.833330 9.971147 A
9389 A -24.613270 12.311960 9.975612 A
9390 A -23.725090 12.212760 10.274460 A
9391 A -22.905080 12.674370 10.524330 A
9392 A -22.302300 12.068200 10.061140 A
9393 B -21.309300 12.030710 9.975728 B
9394 B -20.833610 11.730530 9.212258 B
9395 B -21.749150 11.594180 8.987057 B
9396 B -22.551800 12.118240 8.657630 B
9397 B -22.794650 13.068840 8.618115 B
9398 B -22.265640 13.880700 8.491713 B
9399 B -21.695160 14.442430 8.867702 B
9400 A -20.870770 14.913640 8.791194 A
9401 A -19.999980 15.105540 8.412416 A
9402 A -19.769120 15.435530 7.569704 A
9403 A -19.259140 14.695410 7.326106 A
9404 A -18.934520 13.951470 6.864563 A
9405 A -18.696660 12.929080 6.800145 A
9406 A -20.596060 -24.351730 -2.560319 A
9407 A -20.370700 -24.589460 -1.653181 A
9408 A -19.642280 -24.418010 -1.119742 A
9409 A -18.702640 -24.297810 -0.884303 A
9410 A -17.845830 -24.230480 -0.429492 A
9411 A -17.066040 -23.650890 -0.615178 A
9412 B -16.380990 -23.006950 -0.971226 B
9413 B -15.887840 -22.302640 -1.376378 B
9414 B -15.680280 -21.466820 -1.849857 B
9415 B -16.228420 -21.282230 -2.637572 B
9416 B -16.554690 -21.935330 -3.283975 B
9417 B -17.169270 -22.390360 -3.860188 B
9418 B -17.282780 -23.020210 -4.599379 B
9419 A -16.337960 -23.126310 -4.365224 A
9420 A -15.518650 -22.644490 -4.322249 A
9421 A -15.165870 -21.862330 -3.901231 A
9422 A -14.883370 -20.970610 -3.636508 A
9423 A -14.916980 -20.189170 -3.057273 A
9424 A -14.569390 -19.306060 -3.172681 A
9425 A -13.698790 6.291495 21.345550 A
9426 A -14.207860 5.462252 21.240820 A
9427 A -14.946960 4.857515 21.080530 A
9428 A -15.955230 5.076307 21.052260 A
9429 A -16.082910 6.125195 21.046330 A
9430 A -16.015770 6.624924 21.884340 A
9431 B -16.188550 7.453284 22.374260 B
9432 B -16.157650 7.376423 23.381700 B
9433 B -15.278870 7.844431 23.472580 B
9434 B -14.897150 8.561191 23.942950 B
9435 B -15.154170 9.378254 24.376020 B
9436 B -15.814830 10.128600 24.525050 B
9437 B -16.172850 10.689750 -24.682340 B
9438 A -16.389560 10.347470 -23.794230 A
9439 A -16.542370 9.721725 -23.063510 A
9440 A -17.431180 9.577495 -23.420010 A
9441 A -18.178180 9.860921 -23.950020 A
9442 A -18.666740 10.051140 -24.736460 A
9443 A -18.862890 9.989784 24.237060 A
9444 A 4.622541 6.567295 -10.663730 A
9445 A 4.931229 7.385887 -11.093530 A
9446 A 5.454600 8.061632 -11.511020 A
9447 A 6.144542 8.518413 -12.013980 A
9448 A 6.763397 8.739522 -12.713890 A
9449 A 7.543503 8.487123 -13.200110 A
9450 B 8.254531 8.187877 -13.800810 B
9451 B 8.733054 7.921899 -14.598320 B
9452 B 8.663591 8.145153 -15.533190 B
9453 B 8.388459 8.995445 -15.923690 B
9454 B 7.807833 9.743292 -15.761670 B
9455 B 7.475390 10.153340 -14.953550 B
9456 B 7.438155 10.841450 -14.260410 B
9457 A 8.300263 10.507480 -13.982010 A
9458 A 9.177414 10.240350 -13.644440 A
9459 A 10.042490 9.912877 -13.402470 A
9460 A 10.792800 9.348149 -13.510670 A
9461 A 11.650220 8.910137 -13.677460 A
9462 A 12.414380 9.019248 -14.255970 A
9463 A 19.292690 2.362174 10.432950 A
9464 A 18.971580 2.859798 11.167760 A
9465 A 19.390220 2.838699 12.022180 A
9466 A 20.201640 2.667761 12.531910 A
9467 A 20.972390 2.643189 11.917690 A
9468 A 21.711470 2.304440 11.412840 A
9469 B 22.313980 1.664353 11.122300 B
9470 B 23.030770 1.567660 11.753690 B
9471 B 22.570160 2.373488 11.972540 B
9472 B 22.257000 3.197122 12.422440 B
9473 B 22.168580 3.657308 13.338460 B
9474 B 22.929910 4.198120 13.381460 B
9475 B 23.874610 4.087107 13.417860 B
9476 A 24.547700 3.460914 13.556480 A
9477 A -24.512790 3.047975 13.186310 A
9478 A -24.601590 2.071082 13.117330 A
9479 A 24.411030 2.045681 13.344900 A
9480 A 23.860150 1.247254 13.512250 A
9481 A 23.897830 0.270933 13.350580 A
9482 A 20.365830 14.684640 11.023470 A
9483 A 20.430860 15.175810 11.875750 A
9484 A 20.390640 15.291490 12.821780 A
9485 A 20.879730 15.210540 13.630850 A
9486 A 21.751250 14.942380 14.055170 A
9487 A 22.559950 15.478040 13.987520 A
9488 B 23.403060 15.895570 13.883640 B
9489 B 24.215290 16.364820 13.831220 B
9490 B 24.246280 17.336760 13.951710 B
9491 B 23.975450 17.902560 13.191020 B
9492 B 24.104280 17.761760 12.237420 B
9493 B 23.844630 17.447900 11.328580 B
9494 B 24.374110 17.949530 10.689890 B
9495 A -24.683600 18.365720 10.554790 A
9496 A -24.220020 18.960110 11.115750 A
9497 A -23.312430 18.689540 10.905950 A
9498 A -22.552410 18.280010 11.336150 A
9499 A -21.920100 18.046630 11.987540 A
9500 A -21.189840 18.095720 12.610150 A
@<TRIPOS>BOND
1 1 2 1
2 2 3 1
3 3 4 1
4 4 5 1
5 5 6 1
6 6 7 1
7 7 8 1
8 8 9 1
9 9 10 1
10 10 11 1
11 11 12 1
12 12 13 1
13 13 14 1
14 14 15 1
15 15 16 1
16 16 17 1
17 17 18 1
18 18 19 1
19 20 21 1
20 21 22 1
21 22 23 1
22 23 24 1
23 24 25 1
24 25 26 1
25 26 27 1
26 27 28 1
27 28 29 1
28 29 30 1
29 30 31 1
30 31 32 1
31 32 33 1
32 33 34 1
33 34 35 1
34 35 36 1
35 36 37 1
36 37 38 1
37 39 40 1
38 40 41 1
39 41 42 1
40 42 43 1
41 43 44 1
42 44 45 1
43 45 46 1
44 46 47 1
45 47 48 1
46 48 49 1
47 49 50 1
48 50 51 1
49 51 52 1
50 52 53 1
51 53 54 1
52 54 55 1
53 55 56 1
54 56 57 1
55 58 59 1
56 59 60 1
57 60 61 1
58 61 62 1
59 62 63 1
60 63 64 1
61 64 65 1
62 65 66 1
63 66 67 1
64 67 68 1
65 68 69 1
66 69 70 1
67 70 71 1
68 71 72 1
69 72 73 1
70 73 74 1
71 74 75 1
72 75 76 1
73 77 78 1
74 78 79 1
75 79 80 1
76 80 81 1
77 81 82 1
78 82 83 1
79 83 84 1
80 84 85 1
81 85 86 1
82 86 87 1
83 87 88 1
84 88 89 1
85 89 90 1
86 90 91 1
87 91 92 1
88 92 93 1
89 93 94 1
90 94 95 1
91 96 97 1
92 97 98 1
93 98 99 1
94 99 100 1
95 100 101 1
96 101 102 1
97 102 103 1
98 103 104 1
99 104 105 1
100 105 106 1
101 106 107 1
102 107 108 1
103 108 109 1
104 109 110 1
105 110 111 1
106 111 112 1
107 112 113 1
108 113 114 1
109 115 116 1
110 116 117 1
111 117 118 1
112 118 119 1
113 119 120 1
114 120 121 1
115 121 122 1
116 122 123 1
117 123 124 1
118 124 125 1
119 125 126 1
120 126 127 1
121 127 128 1
122 128 129 1
123 129 130 1
124 130 131 1
125 131 132 1
126 132 133 1
127 134 135 1
128 135 136 1
129 136 137 1
130 137 138 1
131 138 139 1
132 139 140 1
133 140 141 1
134 141 142 1
135 142 143 1
136 143 144 1
137 144 145 1
138 145 146 1
139 146 147 1
140 147 148 1
141 148 149 1
142 149 150 1
143 150 151 1
144 151 152 1
145 153 154 1
146 154 155 1
147 155 156 1
148 156 157 1
149 157 158 1
150 158 159 1
151 159 160 1
152 160 161 1
153 161 162 1
154 162 163 1
155 163 164 1
156 164 165 1
157 165 166 1
158 166 167 1
159 167 168 1
160 168 169 1
161 169 170 1
162 170 171 1
163 172 173 1
164 173 174 1
165 174 175 1
166 175 176 1
167 176 177 1
168 177 178 1
169 178 179 1
170 179 180 1
171 180 181 1
172 181 182 1
173 182 183 1
174 183 184 1
175 184 185 1
176 185 186 1
177 186 187 1
178 187 188 1
179 188 189 1
180 189 190 1
181 191 192 1
182 192 193 1
183 193 194 1
184 194 195 1
185 195 196 1
186 196 197 1
187 197 198 1
188 198 199 1
189 199 200 1
190 200 201 1
191 201 202 1
192 202 203 1
193 203 204 1
194 204 205 1
195 205 206 1
196 206 207 1
197 207 208 1
198 208 209 1
199 210 211 1
200 211 212 1
201 212 213 1
202 213 214 1
203 214 215 1
204 215 216 1
205 216 217 1
206 217 218 1
207 218 219 1
208 219 220 1
209 220 221 1
210 221 222 1
211 222 223 1
212 223 224 1
213 224 225 1
214 225 226 1
215 226 227 1
216 227 228 1
217 229 230 1
218 230 231 1
219 231 232 1
220 232 233 1
221 233 234 1
222 234 235 1
223 235 236 1
224 236 237 1
225 237 238 1
226 238 239 1
227 239 240 1
228 240 241 1
229 241 242 1
230 242 243 1
231 243 244 1
232 244 245 1
233 245 246 1
234 246 247 1
235 248 249 1
236 249 250 1
237 250 251 1
238 251 252 1
239 252 253 1
240 253 254 1
241 254 255 1
242 255 256 1
243 256 257 1
244 257 258 1
245 258 259 1
246 259 260 1
247 260 261 1
248 261 262 1
249 262 263 1
250 263 264 1
251 264 265 1
252 265 266 1
253 267 268 1
254 268 269 1
255 269 270 1
256 270 271 1
257 271 272 1
258 272 273 1
259 273 274 1
260 274 275 1
261 275 276 1
262 276 277 1
263 277 278 1
264 278 279 1
265 279 280 1
266 280 281 1
267 281 282 1
268 282 283 1
269 283 284 1
270 284 285 1
271 286 287 1
272 287 288 1
273 288 289 1
274 289 290 1
275 290 291 1
276 291 292 1
277 292 293 1
278 293 294 1
279 294 295 1
280 295 296 1
281 296 297 1
282 297 298 1
283 298 299 1
284 299 300 1
285 300 301 1
286 301 302 1
287 302 303 1
288 303 304 1
289 305 306 1
290 306 307 1
291 307 308 1
292 308 309 1
293 309 310 1
294 310 311 1
295 311 312 1
296 312 313 1
297 313 314 1
298 314 315 1
299 315 316 1
300 316 317 1
301 317 318 1
302 318 319 1
303 319 320 1
304 320 321 1
305 321 322 1
306 322 323 1
307 324 325 1
308 325 326 1
309 326 327 1
310 327 328 1
311 328 329 1
312 329 330 1
313 330 331 1
314 331 332 1
315 332 333 1
316 333 334 1
317 334 335 1
318 335 336 1
319 336 337 1
320 337 338 1
321 338 339 1
322 339 340 1
323 340 341 1
324 341 342 1
325 343 344 1
326 344 345 1
327 345 346 1
328 346 347 1
329 347 348 1
330 348 349 1
331 349 350 1
332 350 351 1
333 351 352 1
334 352 353 1
335 353 354 1
336 354 355 1
337 355 356 1
338 356 357 1
339 357 358 1
340 358 359 1
341 359 360 1
342 360 361 1
343 362 363 1
344 363 364 1
345 364 365 1
346 365 366 1
347 366 367 1
348 367 368 1
349 368 369 1
350 369 370 1
351 370 371 1
352 371 372 1
353 372 373 1
354 373 374 1
355 374 375 1
356 375 376 1
357 376 377 1
358 377 378 1
359 378 379 1
360 379 380 1
361 381 382 1
362 382 383 1
363 383 384 1
364 384 385 1
365 385 386 1
366 386 387 1
367 387 388 1
368 388 389 1
369 389 390 1
370 390 391 1
371 391 392 1
372 392 393 1
373 393 394 1
374 394 395 1
375 395 396 1
376 396 397 1
377 397 398 1
378 398 399 1
379 400 401 1
380 401 402 1
381 402 403 1
382 403 404 1
383 404 405 1
384 405 406 1
385 406 407 1
386 407 408 1
387 408 409 1
388 409 410 1
389 410 411 1
390 411 412 1
391 412 413 1
392 413 414 1
393 414 415 1
394 415 416 1
395 416 417 1
396 417 418 1
397 419 420 1
398 420 421 1
399 421 422 1
400 422 423 1
401 423 424 1
402 424 425 1
403 425 426 1
404 426 427 1
405 427 428 1
406 428 429 1
407 429 430 1
408 430 431 1
409 431 432 1
410 432 433 1
411 433 434 1
412 434 435 1
413 435 436 1
414 436 437 1
415 438 439 1
416 439 440 1
417 440 441 1
418 441 442 1
419 442 443 1
420 443 444 1
421 444 445 1
422 445 446 1
423 446 447 1
424 447 448 1
425 448 449 1
426 449 450 1
427 450 451 1
428 451 452 1
429 452 453 1
430 453 454 1
431 454 455 1
432 455 456 1
433 457 458 1
434 458 459 1
435 459 460 1
436 460 461 1
437 461 462 1
438 462 463 1
439 463 464 1
440 464 465 1
441 465 466 1
442 466 467 1
443 467 468 1
444 468 469 1
445 469 470 1
446 470 471 1
447 471 472 1
448 472 473 1
449 473 474 1
450 474 475 1
451 476 477 1
452 477 478 1
453 478 479 1
454 479 480 1
455 480 481 1
456 481 482 1
457 482 483 1
458 483 484 1
459 484 485 1
460 485 486 1
461 486 487 1
462 487 488 1
463 488 489 1
464 489 490 1
465 490 491 1
466 491 492 1
467 492 493 1
468 493 494 1
469 495 496 1
470 496 497 1
471 497 498 1
472 498 499 1
473 499 500 1
474 500 501 1
475 501 502 1
476 502 503 1
477 503 504 1
478 504 505 1
479 505 506 1
480 506 507 1
481 507 508 1
482 508 509 1
483 509 510 1
484 510 511 1
485 511 512 1
486 512 513 1
487 514 515 1
488 515 516 1
489 516 517 1
490 517 518 1
491 518 519 1
492 519 520 1
493 520 521 1
494 521 522 1
495 522 523 1
496 523 524 1
497 524 525 1
498 525 526 1
499 526 527 1
500 527 528 1
501 528 529 1
502 529 530 1
503 530 531 1
504 531 532 1
505 533 534 1
506 534 535 1
507 535 536 1
508 536 537 1
509 537 538 1
510 538 539 1
511 539 540 1
512 540 541 1
513 541 542 1
514 542 543 1
515 543 544 1
516 544 545 1
517 545 546 1
518 546 547 1
519 547 548 1
520 548 549 1
521 549 550 1
522 550 551 1
523 552 553 1
524 553 554 1
525 554 555 1
526 555 556 1
527 556 557 1
528 557 558 1
529 558 559 1
530 559 560 1
531 560 561 1
532 561 562 1
533 562 563 1
534 563 564 1
535 564 565 1
536 565 566 1
537 566 567 1
538 567 568 1
539 568 569 1
540 569 570 1
541 571 572 1
542 572 573 1
543 573 574 1
544 574 575 1
545 575 576 1
546 576 577 1
547 577 578 1
548 578 579 1
549 579 580 1
550 580 581 1
551 581 582 1
552 582 583 1
553 583 584 1
554 584 585 1
555 585 586 1
556 586 587 1
557 587 588 1
558 588 589 1
559 590 591 1
560 591 592 1
561 592 593 1
562 593 594 1
563 594 595 1
564 595 596 1
565 596 597 1
566 597 598 1
567 598 599 1
568 599 600 1
569 600 601 1
570 601 602 1
571 602 603 1
572 603 604 1
573 604 605 1
574 605 606 1
575 606 607 1
576 607 608 1
577 609 610 1
578 610 611 1
579 611 612 1
580 612 613 1
581 613 614 1
582 614 615 1
583 615 616 1
584 616 617 1
585 617 618 1
586 618 619 1
587 619 620 1
588 620 621 1
589 621 622 1
590 622 623 1
591 623 624 1
592 624 625 1
593 625 626 1
594 626 627 1
595 628 629 1
596 629 630 1
597 630 631 1
598 631 632 1
599 632 633 1
600 633 634 1
601 634 635 1
602 635 636 1
603 636 637 1
604 637 638 1
605 638 639 1
606 639 640 1
607 640 641 1
608 641 642 1
609 642 643 1
610 643 644 1
611 644 645 1
612 645 646 1
613 647 648 1
614 648 649 1
615 649 650 1
616 650 651 1
617 651 652 1
618 652 653 1
619 653 654 1
620 654 655 1
621 655 656 1
622 656 657 1
623 657 658 1
624 658 659 1
625 659 660 1
626 660 661 1
627 661 662 1
628 662 663 1
629 663 664 1
630 664 665 1
631 666 667 1
632 667 668 1
633 668 669 1
634 669 670 1
635 670 671 1
636 671 672 1
637 672 673 1
638 673 674 1
639 674 675 1
640 675 676 1
641 676 677 1
642 677 678 1
643 678 679 1
644 679 680 1
645 680 681 1
646 681 682 1
647 682 683 1
648 683 684 1
649 685 686 1
650 686 687 1
651 687 688 1
652 688 689 1
653 689 690 1
654 690 691 1
655 691 692 1
656 692 693 1
657 693 694 1
658 694 695 1
659 695 696 1
660 696 697 1
661 697 698 1
662 698 699 1
663 699 700 1
664 700 701 1
665 701 702 1
666 702 703 1
667 704 705 1
668 705 706 1
669 706 707 1
670 707 708 1
671 708 709 1
672 709 710 1
673 710 711 1
674 711 712 1
675 712 713 1
676 713 714 1
677 714 715 1
678 715 716 1
679 716 717 1
680 717 718 1
681 718 719 1
682 719 720 1
683 720 721 1
684 721 722 1
685 723 724 1
686 724 725 1
687 725 726 1
688 726 727 1
689 727 728 1
690 728 729 1
691 729 730 1
692 730 731 1
693 731 732 1
694 732 733 1
695 733 734 1
696 734 735 1
697 735 736 1
698 736 737 1
699 737 738 1
700 738 739 1
701 739 740 1
702 740 741 1
703 742 743 1
704 743 744 1
705 744 745 1
706 745 746 1
707 746 747 1
708 747 748 1
709 748 749 1
710 749 750 1
711 750 751 1
712 751 752 1
713 752 753 1
714 753 754 1
715 754 755 1
716 755 756 1
717 756 757 1
718 757 758 1
719 758 759 1
720 759 760 1
721 761 762 1
722 762 763 1
723 763 764 1
724 764 765 1
725 765 766 1
726 766 767 1
727 767 768 1
728 768 769 1
729 769 770 1
730 770 771 1
731 771 772 1
732 772 773 1
733 773 774 1
734 774 775 1
735 775 776 1
736 776 777 1
737 777 778 1
738 778 779 1
739 780 781 1
740 781 782 1
741 782 783 1
742 783 784 1
743 784 785 1
744 785 786 1
745 786 787 1
746 787 788 1
747 788 789 1
748 789 790 1
749 790 791 1
750 791 792 1
751 792 793 1
752 793 794 1
753 794 795 1
754 795 796 1
755 796 797 1
756 797 798 1
757 799 800 1
758 800 801 1
759 801 802 1
760 802 803 1
761 803 804 1
762 804 805 1
763 805 806 1
764 806 807 1
765 807 808 1
766 808 809 1
767 809 810 1
768 810 811 1
769 811 812 1
770 812 813 1
771 813 814 1
772 814 815 1
773 815 816 1
774 816 817 1
775 818 819 1
776 819 820 1
777 820 821 1
778 821 822 1
779 822 823 1
780 823 824 1
781 824 825 1
782 825 826 1
783 826 827 1
784 827 828 1
785 828 829 1
786 829 830 1
787 830 831 1
788 831 832 1
789 832 833 1
790 833 834 1
791 834 835 1
792 835 836 1
793 837 838 1
794 838 839 1
795 839 840 1
796 840 841 1
797 841 842 1
798 842 843 1
799 843 844 1
800 844 845 1
801 845 846 1
802 846 847 1
803 847 848 1
804 848 849 1
805 849 850 1
806 850 851 1
807 851 852 1
808 852 853 1
809 853 854 1
810 854 855 1
811 856 857 1
812 857 858 1
813 858 859 1
814 859 860 1
815 860 861 1
816 861 862 1
817 862 863 1
818 863 864 1
819 864 865 1
820 865 866 1
821 866 867 1
822 867 868 1
823 868 869 1
824 869 870 1
825 870 871 1
826 871 872 1
827 872 873 1
828 873 874 1
829 875 876 1
830 876 877 1
831 877 878 1
832 878 879 1
833 879 880 1
834 880 881 1
835 881 882 1
836 882 883 1
837 883 884 1
838 884 885 1
839 885 886 1
840 886 887 1
841 887 888 1
842 888 889 1
843 889 890 1
844 890 891 1
845 891 892 1
846 892 893 1
847 894 895 1
848 895 896 1
849 896 897 1
850 897 898 1
851 898 899 1
852 899 900 1
853 900 901 1
854 901 902 1
855 902 903 1
856 903 904 1
857 904 905 1
858 905 906 1
859 906 907 1
860 907 908 1
861 908 909 1
862 909 910 1
863 910 911 1
864 911 912 1
865 913 914 1
866 914 915 1
867 915 916 1
868 916 917 1
869 917 918 1
870 918 919 1
871 919 920 1
872 920 921 1
873 921 922 1
874 922 923 1
875 923 924 1
876 924 925 1
877 925 926 1
878 926 927 1
879 927 928 1
880 928 929 1
881 929 930 1
882 930 931 1
883 932 933 1
884 933 934 1
885 934 935 1
886 935 936 1
887 936 937 1
888 937 938 1
889 938 939 1
890 939 940 1
891 940 941 1
892 941 942 1
893 942 943 1
894 943 944 1
895 944 945 1
896 945 946 1
897 946 947 1
898 947 948 1
899 948 949 1
900 949 950 1
901 951 952 1
902 952 953 1
903 953 954 1
904 954 955 1
905 955 956 1
906 956 957 1
907 957 958 1
908 958 959 1
909 959 960 1
910 960 961 1
911 961 962 1
912 962 963 1
913 963 964 1
914 964 965 1
915 965 966 1
916 966 967 1
917 967 968 1
918 968 969 1
919 970 971 1
920 971 972 1
921 972 973 1
922 973 974 1
923 974 975 1
924 975 976 1
925 976 977 1
926 977 978 1
927 978 979 1
928 979 980 1
929 980 981 1
930 981 982 1
931 982 983 1
932 983 984 1
933 984 985 1
934 985 986 1
935 986 987 1
936 987 988 1
937 989 990 1
938 990 991 1
939 991 992 1
940 992 993 1
941 993 994 1
942 994 995 1
943 995 996 1
944 996 997 1
945 997 998 1
946 998 999 1
947 999 1000 1
948 1000 1001 1
949 1001 1002 1
950 1002 1003 1
951 1003 1004 1
952 1004 1005 1
953 1005 1006 1
954 1006 1007 1
955 1008 1009 1
956 1009 1010 1
957 1010 1011 1
958 1011 1012 1
959 1012 1013 1
960 1013 1014 1
961 1014 1015 1
962 1015 1016 1
963 1016 1017 1
964 1017 1018 1
965 1018 1019 1
966 1019 1020 1
967 1020 1021 1
968 1021 1022 1
969 1022 1023 1
970 1023 1024 1
971 1024 1025 1
972 1025 1026 1
973 1027 1028 1
974 1028 1029 1
975 1029 1030 1
976 1030 1031 1
977 1031 1032 1
978 1032 1033 1
979 1033 1034 1
980 1034 1035 1
981 1035 1036 1
982 1036 1037 1
983 1037 1038 1
984 1038 1039 1
985 1039 1040 1
986 1040 1041 1
987 1041 1042 1
988 1042 1043 1
989 1043 1044 1
990 1044 1045 1
991 1046 1047 1
992 1047 1048 1
993 1048 1049 1
994 1049 1050 1
995 1050 1051 1
996 1051 1052 1
997 1052 1053 1
998 1053 1054 1
999 1054 1055 1
1000 1055 1056 1
1001 1056 1057 1
1002 1057 1058 1
1003 1058 1059 1
1004 1059 1060 1
1005 1060 1061 1
1006 1061 1062 1
1007 1062 1063 1
1008 1063 1064 1
1009 1065 1066 1
1010 1066 1067 1
1011 1067 1068 1
1012 1068 1069 1
1013 1069 1070 1
1014 1070 1071 1
1015 1071 1072 1
1016 1072 1073 1
1017 1073 1074 1
1018 1074 1075 1
1019 1075 1076 1
1020 1076 1077 1
1021 1077 1078 1
1022 1078 1079 1
1023 1079 1080 1
1024 1080 1081 1
1025 1081 1082 1
1026 1082 1083 1
1027 1084 1085 1
1028 1085 1086 1
1029 1086 1087 1
1030 1087 1088 1
1031 1088 1089 1
1032 1089 1090 1
1033 1090 1091 1
1034 1091 1092 1
1035 1092 1093 1
1036 1093 1094 1
1037 1094 1095 1
1038 1095 1096 1
1039 1096 1097 1
1040 1097 1098 1
1041 1098 1099 1
1042 1099 1100 1
1043 1100 1101 1
1044 1101 1102 1
1045 1103 1104 1
1046 1104 1105 1
1047 1105 1106 1
1048 1106 1107 1
1049 1107 1108 1
1050 1108 1109 1
1051 1109 1110 1
1052 1110 1111 1
1053 1111 1112 1
1054 1112 1113 1
1055 1113 1114 1
1056 1114 1115 1
1057 1115 1116 1
1058 1116 1117 1
1059 1117 1118 1
1060 1118 1119 1
1061 1119 1120 1
1062 1120 1121 1
1063 1122 1123 1
1064 1123 1124 1
1065 1124 1125 1
1066 1125 1126 1
1067 1126 1127 1
1068 1127 1128 1
1069 1128 1129 1
1070 1129 1130 1
1071 1130 1131 1
1072 1131 1132 1
1073 1132 1133 1
1074 1133 1134 1
1075 1134 1135 1
1076 1135 1136 1
1077 1136 1137 1
1078 1137 1138 1
1079 1138 1139 1
1080 1139 1140 1
1081 1141 1142 1
1082 1142 1143 1
1083 1143 1144 1
1084 1144 1145 1
1085 1145 1146 1
1086 1146 1147 1
1087 1147 1148 1
1088 1148 1149 1
1089 1149 1150 1
1090 1150 1151 1
1091 1151 1152 1
1092 1152 1153 1
1093 1153 1154 1
1094 1154 1155 1
1095 1155 1156 1
1096 1156 1157 1
1097 1157 1158 1
1098 1158 1159 1
1099 1160 1161 1
1100 1161 1162 1
1101 1162 1163 1
1102 1163 1164 1
1103 1164 1165 1
1104 1165 1166 1
1105 1166 1167 1
1106 1167 1168 1
1107 1168 1169 1
1108 1169 1170 1
1109 1170 1171 1
1110 1171 1172 1
1111 1172 1173 1
1112 1173 1174 1
1113 1174 1175 1
1114 1175 1176 1
1115 1176 1177 1
1116 1177 1178 1
1117 1179 1180 1
1118 1180 1181 1
1119 1181 1182 1
1120 1182 1183 1
1121 1183 1184 1
1122 1184 1185 1
1123 1185 1186 1
1124 1186 1187 1
1125 1187 1188 1
1126 1188 1189 1
1127 1189 1190 1
1128 1190 1191 1
1129 1191 1192 1
1130 1192 1193 1
1131 1193 1194 1
1132 1194 1195 1
1133 1195 1196 1
1134 1196 1197 1
1135 1198 1199 1
1136 1199 1200 1
1137 1200 1201 1
1138 1201 1202 1
1139 1202 1203 1
1140 1203 1204 1
1141 1204 1205 1
1142 1205 1206 1
1143 1206 1207 1
1144 1207 1208 1
1145 1208 1209 1
1146 1209 1210 1
1147 1210 1211 1
1148 1211 1212 1
1149 1212 1213 1
1150 1213 1214 1
1151 1214 1215 1
1152 1215 1216 1
1153 1217 1218 1
1154 1218 1219 1
1155 1219 1220 1
1156 1220 1221 1
1157 1221 1222 1
1158 1222 1223 1
1159 1223 1224 1
1160 1224 1225 1
1161 1225 1226 1
1162 1226 1227 1
1163 1227 1228 1
1164 1228 1229 1
1165 1229 1230 1
1166 1230 1231 1
1167 1231 1232 1
1168 1232 1233 1
1169 1233 1234 1
1170 1234 1235 1
1171 1236 1237 1
1172 1237 1238 1
1173 1238 1239 1
1174 1239 1240 1
1175 1240 1241 1
1176 1241 1242 1
1177 1242 1243 1
1178 1243 1244 1
1179 1244 1245 1
1180 1245 1246 1
1181 1246 1247 1
1182 1247 1248 1
1183 1248 1249 1
1184 1249 1250 1
1185 1250 1251 1
1186 1251 1252 1
1187 1252 1253 1
1188 1253 1254 1
1189 1255 1256 1
1190 1256 1257 1
1191 1257 1258 1
1192 1258 1259 1
1193 1259 1260 1
1194 1260 1261 1
1195 1261 1262 1
1196 1262 1263 1
1197 1263 1264 1
1198 1264 1265 1
1199 1265 1266 1
1200 1266 1267 1
1201 1267 1268 1
1202 1268 1269 1
1203 1269 1270 1
1204 1270 1271 1
1205 1271 1272 1
1206 1272 1273 1
1207 1274 1275 1
1208 1275 1276 1
1209 1276 1277 1
1210 1277 1278 1
1211 1278 1279 1
1212 1279 1280 1
1213 1280 1281 1
1214 1281 1282 1
1215 1282 1283 1
1216 1283 1284 1
1217 1284 1285 1
1218 1285 1286 1
1219 1286 1287 1
1220 1287 1288 1
1221 1288 1289 1
1222 1289 1290 1
1223 1290 1291 1
1224 1291 1292 1
1225 1293 1294 1
1226 1294 1295 1
1227 1295 1296 1
1228 1296 1297 1
1229 1297 1298 1
1230 1298 1299 1
1231 1299 1300 1
1232 1300 1301 1
1233 1301 1302 1
1234 1302 1303 1
1235 1303 1304 1
1236 1304 1305 1
1237 1305 1306 1
1238 1306 1307 1
1239 1307 1308 1
1240 1308 1309 1
1241 1309 1310 1
1242 1310 1311 1
1243 1312 1313 1
1244 1313 1314 1
1245 1314 1315 1
1246 1315 1316 1
1247 1316 1317 1
1248 1317 1318 1
1249 1318 1319 1
1250 1319 1320 1
1251 1320 1321 1
1252 1321 1322 1
1253 1322 1323 1
1254 1323 1324 1
1255 1324 1325 1
1256 1325 1326 1
1257 1326 1327 1
1258 1327 1328 1
1259 1328 1329 1
1260 1329 1330 1
1261 1331 1332 1
1262 1332 1333 1
1263 1333 1334 1
1264 1334 1335 1
1265 1335 1336 1
1266 1336 1337 1
1267 1337 1338 1
1268 1338 1339 1
1269 1339 1340 1
1270 1340 1341 1
1271 1341 1342 1
1272 1342 1343 1
1273 1343 1344 1
1274 1344 1345 1
1275 1345 1346 1
1276 1346 1347 1
1277 1347 1348 1
1278 1348 1349 1
1279 1350 1351 1
1280 1351 1352 1
1281 1352 1353 1
1282 1353 1354 1
1283 1354 1355 1
1284 1355 1356 1
1285 1356 1357 1
1286 1357 1358 1
1287 1358 1359 1
1288 1359 1360 1
1289 1360 1361 1
1290 1361 1362 1
1291 1362 1363 1
1292 1363 1364 1
1293 1364 1365 1
1294 1365 1366 1
1295 1366 1367 1
1296 1367 1368 1
1297 1369 1370 1
1298 1370 1371 1
1299 1371 1372 1
1300 1372 1373 1
1301 1373 1374 1
1302 1374 1375 1
1303 1375 1376 1
1304 1376 1377 1
1305 1377 1378 1
1306 1378 1379 1
1307 1379 1380 1
1308 1380 1381 1
1309 1381 1382 1
1310 1382 1383 1
1311 1383 1384 1
1312 1384 1385 1
1313 1385 1386 1
1314 1386 1387 1
1315 1388 1389 1
1316 1389 1390 1
1317 1390 1391 1
1318 1391 1392 1
1319 1392 1393 1
1320 1393 1394 1
1321 1394 1395 1
1322 1395 1396 1
1323 1396 1397 1
1324 1397 1398 1
1325 1398 1399 1
1326 1399 1400 1
1327 1400 1401 1
1328 1401 1402 1
1329 1402 1403 1
1330 1403 1404 1
1331 1404 1405 1
1332 1405 1406 1
1333 1407 1408 1
1334 1408 1409 1
1335 1409 1410 1
1336 1410 1411 1
1337 1411 1412 1
1338 1412 1413 1
1339 1413 1414 1
1340 1414 1415 1
1341 1415 1416 1
1342 1416 1417 1
1343 1417 1418 1
1344 1418 1419 1
1345 1419 1420 1
1346 1420 1421 1
1347 1421 1422 1
1348 1422 1423 1
1349 1423 1424 1
1350 1424 1425 1
1351 1426 1427 1
1352 1427 1428 1
1353 1428 1429 1
1354 1429 1430 1
1355 1430 1431 1
1356 1431 1432 1
1357 1432 1433 1
1358 1433 1434 1
1359 1434 1435 1
1360 1435 1436 1
1361 1436 1437 1
1362 1437 1438 1
1363 1438 1439 1
1364 1439 1440 1
1365 1440 1441 1
1366 1441 1442 1
1367 1442 1443 1
1368 1443 1444 1
1369 1445 1446 1
1370 1446 1447 1
1371 1447 1448 1
1372 1448 1449 1
1373 1449 1450 1
1374 1450 1451 1
1375 1451 1452 1
1376 1452 1453 1
1377 1453 1454 1
1378 1454 1455 1
1379 1455 1456 1
1380 1456 1457 1
1381 1457 1458 1
1382 1458 1459 1
1383 1459 1460 1
1384 1460 1461 1
1385 1461 1462 1
1386 1462 1463 1
1387 1464 1465 1
1388 1465 1466 1
1389 1466 1467 1
1390 1467 1468 1
1391 1468 1469 1
1392 1469 1470 1
1393 1470 1471 1
1394 1471 1472 1
1395 1472 1473 1
1396 1473 1474 1
1397 1474 1475 1
1398 1475 1476 1
1399 1476 1477 1
1400 1477 1478 1
1401 1478 1479 1
1402 1479 1480 1
1403 1480 1481 1
1404 1481 1482 1
1405 1483 1484 1
1406 1484 1485 1
1407 1485 1486 1
1408 1486 1487 1
1409 1487 1488 1
1410 1488 1489 1
1411 1489 1490 1
1412 1490 1491 1
1413 1491 1492 1
1414 1492 1493 1
1415 1493 1494 1
1416 1494 1495 1
1417 1495 1496 1
1418 1496 1497 1
1419 1497 1498 1
1420 1498 1499 1
1421 1499 1500 1
1422 1500 1501 1
1423 1502 1503 1
1424 1503 1504 1
1425 1504 1505 1
1426 1505 1506 1
1427 1506 1507 1
1428 1507 1508 1
1429 1508 1509 1
1430 1509 1510 1
1431 1510 1511 1
1432 1511 1512 1
1433 1512 1513 1
1434 1513 1514 1
1435 1514 1515 1
1436 1515 1516 1
1437 1516 1517 1
1438 1517 1518 1
1439 1518 1519 1
1440 1519 1520 1
1441 1521 1522 1
1442 1522 1523 1
1443 1523 1524 1
1444 1524 1525 1
1445 1525 1526 1
1446 1526 1527 1
1447 1527 1528 1
1448 1528 1529 1
1449 1529 1530 1
1450 1530 1531 1
1451 1531 1532 1
1452 1532 1533 1
1453 1533 1534 1
1454 1534 1535 1
1455 1535 1536 1
1456 1536 1537 1
1457 1537 1538 1
1458 1538 1539 1
1459 1540 1541 1
1460 1541 1542 1
1461 1542 1543 1
1462 1543 1544 1
1463 1544 1545 1
1464 1545 1546 1
1465 1546 1547 1
1466 1547 1548 1
1467 1548 1549 1
1468 1549 1550 1
1469 1550 1551 1
1470 1551 1552 1
1471 1552 1553 1
1472 1553 1554 1
1473 1554 1555 1
1474 1555 1556 1
1475 1556 1557 1
1476 1557 1558 1
1477 1559 1560 1
1478 1560 1561 1
1479 1561 1562 1
1480 1562 1563 1
1481 1563 1564 1
1482 1564 1565 1
1483 1565 1566 1
1484 1566 1567 1
1485 1567 1568 1
1486 1568 1569 1
1487 1569 1570 1
1488 1570 1571 1
1489 1571 1572 1
1490 1572 1573 1
1491 1573 1574 1
1492 1574 1575 1
1493 1575 1576 1
1494 1576 1577 1
1495 1578 1579 1
1496 1579 1580 1
1497 1580 1581 1
1498 1581 1582 1
1499 1582 1583 1
1500 1583 1584 1
1501 1584 1585 1
1502 1585 1586 1
1503 1586 1587 1
1504 1587 1588 1
1505 1588 1589 1
1506 1589 1590 1
1507 1590 1591 1
1508 1591 1592 1
1509 1592 1593 1
1510 1593 1594 1
1511 1594 1595 1
1512 1595 1596 1
1513 1597 1598 1
1514 1598 1599 1
1515 1599 1600 1
1516 1600 1601 1
1517 1601 1602 1
1518 1602 1603 1
1519 1603 1604 1
1520 1604 1605 1
1521 1605 1606 1
1522 1606 1607 1
1523 1607 1608 1
1524 1608 1609 1
1525 1609 1610 1
1526 1610 1611 1
1527 1611 1612 1
1528 1612 1613 1
1529 1613 1614 1
1530 1614 1615 1
1531 1616 1617 1
1532 1617 1618 1
1533 1618 1619 1
1534 1619 1620 1
1535 1620 1621 1
1536 1621 1622 1
1537 1622 1623 1
1538 1623 1624 1
1539 1624 1625 1
1540 1625 1626 1
1541 1626 1627 1
1542 1627 1628 1
1543 1628 1629 1
1544 1629 1630 1
1545 1630 1631 1
1546 1631 1632 1
1547 1632 1633 1
1548 1633 1634 1
1549 1635 1636 1
1550 1636 1637 1
1551 1637 1638 1
1552 1638 1639 1
1553 1639 1640 1
1554 1640 1641 1
1555 1641 1642 1
1556 1642 1643 1
1557 1643 1644 1
1558 1644 1645 1
1559 1645 1646 1
1560 1646 1647 1
1561 1647 1648 1
1562 1648 1649 1
1563 1649 1650 1
1564 1650 1651 1
1565 1651 1652 1
1566 1652 1653 1
1567 1654 1655 1
1568 1655 1656 1
1569 1656 1657 1
1570 1657 1658 1
1571 1658 1659 1
1572 1659 1660 1
1573 1660 1661 1
1574 1661 1662 1
1575 1662 1663 1
1576 1663 1664 1
1577 1664 1665 1
1578 1665 1666 1
1579 1666 1667 1
1580 1667 1668 1
1581 1668 1669 1
1582 1669 1670 1
1583 1670 1671 1
1584 1671 1672 1
1585 1673 1674 1
1586 1674 1675 1
1587 1675 1676 1
1588 1676 1677 1
1589 1677 1678 1
1590 1678 1679 1
1591 1679 1680 1
1592 1680 1681 1
1593 1681 1682 1
1594 1682 1683 1
1595 1683 1684 1
1596 1684 1685 1
1597 1685 1686 1
1598 1686 1687 1
1599 1687 1688 1
1600 1688 1689 1
1601 1689 1690 1
1602 1690 1691 1
1603 1692 1693 1
1604 1693 1694 1
1605 1694 1695 1
1606 1695 1696 1
1607 1696 1697 1
1608 1697 1698 1
1609 1698 1699 1
1610 1699 1700 1
1611 1700 1701 1
1612 1701 1702 1
1613 1702 1703 1
1614 1703 1704 1
1615 1704 1705 1
1616 1705 1706 1
1617 1706 1707 1
1618 1707 1708 1
1619 1708 1709 1
1620 1709 1710 1
1621 1711 1712 1
1622 1712 1713 1
1623 1713 1714 1
1624 1714 1715 1
1625 1715 1716 1
1626 1716 1717 1
1627 1717 1718 1
1628 1718 1719 1
1629 1719 1720 1
1630 1720 1721 1
1631 1721 1722 1
1632 1722 1723 1
1633 1723 1724 1
1634 1724 1725 1
1635 1725 1726 1
1636 1726 1727 1
1637 1727 1728 1
1638 1728 1729 1
1639 1730 1731 1
1640 1731 1732 1
1641 1732 1733 1
1642 1733 1734 1
1643 1734 1735 1
1644 1735 1736 1
1645 1736 1737 1
1646 1737 1738 1
1647 1738 1739 1
1648 1739 1740 1
1649 1740 1741 1
1650 1741 1742 1
1651 1742 1743 1
1652 1743 1744 1
1653 1744 1745 1
1654 1745 1746 1
1655 1746 1747 1
1656 1747 1748 1
1657 1749 1750 1
1658 1750 1751 1
1659 1751 1752 1
1660 1752 1753 1
1661 1753 1754 1
1662 1754 1755 1
1663 1755 1756 1
1664 1756 1757 1
1665 1757 1758 1
1666 1758 1759 1
1667 1759 1760 1
1668 1760 1761 1
1669 1761 1762 1
1670 1762 1763 1
1671 1763 1764 1
1672 1764 1765 1
1673 1765 1766 1
1674 1766 1767 1
1675 1768 1769 1
1676 1769 1770 1
1677 1770 1771 1
1678 1771 1772 1
1679 1772 1773 1
1680 1773 1774 1
1681 1774 1775 1
1682 1775 1776 1
1683 1776 1777 1
1684 1777 1778 1
1685 1778 1779 1
1686 1779 1780 1
1687 1780 1781 1
1688 1781 1782 1
1689 1782 1783 1
1690 1783 1784 1
1691 1784 1785 1
1692 1785 1786 1
1693 1787 1788 1
1694 1788 1789 1
1695 1789 1790 1
1696 1790 1791 1
1697 1791 1792 1
1698 1792 1793 1
1699 1793 1794 1
1700 1794 1795 1
1701 1795 1796 1
1702 1796 1797 1
1703 1797 1798 1
1704 1798 1799 1
1705 1799 1800 1
1706 1800 1801 1
1707 1801 1802 1
1708 1802 1803 1
1709 1803 1804 1
1710 1804 1805 1
1711 1806 1807 1
1712 1807 1808 1
1713 1808 1809 1
1714 1809 1810 1
1715 1810 1811 1
1716 1811 1812 1
1717 1812 1813 1
1718 1813 1814 1
1719 1814 1815 1
1720 1815 1816 1
1721 1816 1817 1
1722 1817 1818 1
1723 1818 1819 1
1724 1819 1820 1
1725 1820 1821 1
1726 1821 1822 1
1727 1822 1823 1
1728 1823 1824 1
1729 1825 1826 1
1730 1826 1827 1
1731 1827 1828 1
1732 1828 1829 1
1733 1829 1830 1
1734 1830 1831 1
1735 1831 1832 1
1736 1832 1833 1
1737 1833 1834 1
1738 1834 1835 1
1739 1835 1836 1
1740 1836 1837 1
1741 1837 1838 1
1742 1838 1839 1
1743 1839 1840 1
1744 1840 1841 1
1745 1841 1842 1
1746 1842 1843 1
1747 1844 1845 1
1748 1845 1846 1
1749 1846 1847 1
1750 1847 1848 1
1751 1848 1849 1
1752 1849 1850 1
1753 1850 1851 1
1754 1851 1852 1
1755 1852 1853 1
1756 1853 1854 1
1757 1854 1855 1
1758 1855 1856 1
1759 1856 1857 1
1760 1857 1858 1
1761 1858 1859 1
1762 1859 1860 1
1763 1860 1861 1
1764 1861 1862 1
1765 1863 1864 1
1766 1864 1865 1
1767 1865 1866 1
1768 1866 1867 1
1769 1867 1868 1
1770 1868 1869 1
1771 1869 1870 1
1772 1870 1871 1
1773 1871 1872 1
1774 1872 1873 1
1775 1873 1874 1
1776 1874 1875 1
1777 1875 1876 1
1778 1876 1877 1
1779 1877 1878 1
1780 1878 1879 1
1781 1879 1880 1
1782 1880 1881 1
1783 1882 1883 1
1784 1883 1884 1
1785 1884 1885 1
1786 1885 1886 1
1787 1886 1887 1
1788 1887 1888 1
1789 1888 1889 1
1790 1889 1890 1
1791 1890 1891 1
1792 1891 1892 1
1793 1892 1893 1
1794 1893 1894 1
1795 1894 1895 1
1796 1895 1896 1
1797 1896 1897 1
1798 1897 1898 1
1799 1898 1899 1
1800 1899 1900 1
1801 1901 1902 1
1802 1902 1903 1
1803 1903 1904 1
1804 1904 1905 1
1805 1905 1906 1
1806 1906 1907 1
1807 1907 1908 1
1808 1908 1909 1
1809 1909 1910 1
1810 1910 1911 1
1811 1911 1912 1
1812 1912 1913 1
1813 1913 1914 1
1814 1914 1915 1
1815 1915 1916 1
1816 1916 1917 1
1817 1917 1918 1
1818 1918 1919 1
1819 1920 1921 1
1820 1921 1922 1
1821 1922 1923 1
1822 1923 1924 1
1823 1924 1925 1
1824 1925 1926 1
1825 1926 1927 1
1826 1927 1928 1
1827 1928 1929 1
1828 1929 1930 1
1829 1930 1931 1
1830 1931 1932 1
1831 1932 1933 1
1832 1933 1934 1
1833 1934 1935 1
1834 1935 1936 1
1835 1936 1937 1
1836 1937 1938 1
1837 1939 1940 1
1838 1940 1941 1
1839 1941 1942 1
1840 1942 1943 1
1841 1943 1944 1
1842 1944 1945 1
1843 1945 1946 1
1844 1946 1947 1
1845 1947 1948 1
1846 1948 1949 1
1847 1949 1950 1
1848 1950 1951 1
1849 1951 1952 1
1850 1952 1953 1
1851 1953 1954 1
1852 1954 1955 1
1853 1955 1956 1
1854 1956 1957 1
1855 1958 1959 1
1856 1959 1960 1
1857 1960 1961 1
1858 1961 1962 1
1859 1962 1963 1
1860 1963 1964 1
1861 1964 1965 1
1862 1965 1966 1
1863 1966 1967 1
1864 1967 1968 1
1865 1968 1969 1
1866 1969 1970 1
1867 1970 1971 1
1868 1971 1972 1
1869 1972 1973 1
1870 1973 1974 1
1871 1974 1975 1
1872 1975 1976 1
1873 1977 1978 1
1874 1978 1979 1
1875 1979 1980 1
1876 1980 1981 1
1877 1981 1982 1
1878 1982 1983 1
1879 1983 1984 1
1880 1984 1985 1
1881 1985 1986 1
1882 1986 1987 1
1883 1987 1988 1
1884 1988 1989 1
1885 1989 1990 1
1886 1990 1991 1
1887 1991 1992 1
1888 1992 1993 1
1889 1993 1994 1
1890 1994 1995 1
1891 1996 1997 1
1892 1997 1998 1
1893 1998 1999 1
1894 1999 2000 1
1895 2000 2001 1
1896 2001 2002 1
1897 2002 2003 1
1898 2003 2004 1
1899 2004 2005 1
1900 2005 2006 1
1901 2006 2007 1
1902 2007 2008 1
1903 2008 2009 1
1904 2009 2010 1
1905 2010 2011 1
1906 2011 2012 1
1907 2012 2013 1
1908 2013 2014 1
1909 2015 2016 1
1910 2016 2017 1
1911 2017 2018 1
1912 2018 2019 1
1913 2019 2020 1
1914 2020 2021 1
1915 2021 2022 1
1916 2022 2023 1
1917 2023 2024 1
1918 2024 2025 1
1919 2025 2026 1
1920 2026 2027 1
1921 2027 2028 1
1922 2028 2029 1
1923 2029 2030 1
1924 2030 2031 1
1925 2031 2032 1
1926 2032 2033 1
1927 2034 2035 1
1928 2035 2036 1
1929 2036 2037 1
1930 2037 2038 1
1931 2038 2039 1
1932 2039 2040 1
1933 2040 2041 1
1934 2041 2042 1
1935 2042 2043 1
1936 2043 2044 1
1937 2044 2045 1
1938 2045 2046 1
1939 2046 2047 1
1940 2047 2048 1
1941 2048 2049 1
1942 2049 2050 1
1943 2050 2051 1
1944 2051 2052 1
1945 2053 2054 1
1946 2054 2055 1
1947 2055 2056 1
1948 2056 2057 1
1949 2057 2058 1
1950 2058 2059 1
1951 2059 2060 1
1952 2060 2061 1
1953 2061 2062 1
1954 2062 2063 1
1955 2063 2064 1
1956 2064 2065 1
1957 2065 2066 1
1958 2066 2067 1
1959 2067 2068 1
1960 2068 2069 1
1961 2069 2070 1
1962 2070 2071 1
1963 2072 2073 1
1964 2073 2074 1
1965 2074 2075 1
1966 2075 2076 1
1967 2076 2077 1
1968 2077 2078 1
1969 2078 2079 1
1970 2079 2080 1
1971 2080 2081 1
1972 2081 2082 1
1973 2082 2083 1
1974 2083 2084 1
1975 2084 2085 1
1976 2085 2086 1
1977 2086 2087 1
1978 2087 2088 1
1979 2088 2089 1
1980 2089 2090 1
1981 2091 2092 1
1982 2092 2093 1
1983 2093 2094 1
1984 2094 2095 1
1985 2095 2096 1
1986 2096 2097 1
1987 2097 2098 1
1988 2098 2099 1
1989 2099 2100 1
1990 2100 2101 1
1991 2101 2102 1
1992 2102 2103 1
1993 2103 2104 1
1994 2104 2105 1
1995 2105 2106 1
1996 2106 2107 1
1997 2107 2108 1
1998 2108 2109 1
1999 2110 2111 1
2000 2111 2112 1
2001 2112 2113 1
2002 2113 2114 1
2003 2114 2115 1
2004 2115 2116 1
2005 2116 2117 1
2006 2117 2118 1
2007 2118 2119 1
2008 2119 2120 1
2009 2120 2121 1
2010 2121 2122 1
2011 2122 2123 1
2012 2123 2124 1
2013 2124 2125 1
2014 2125 2126 1
2015 2126 2127 1
2016 2127 2128 1
2017 2129 2130 1
2018 2130 2131 1
2019 2131 2132 1
2020 2132 2133 1
2021 2133 2134 1
2022 2134 2135 1
2023 2135 2136 1
2024 2136 2137 1
2025 2137 2138 1
2026 2138 2139 1
2027 2139 2140 1
2028 2140 2141 1
2029 2141 2142 1
2030 2142 2143 1
2031 2143 2144 1
2032 2144 2145 1
2033 2145 2146 1
2034 2146 2147 1
2035 2148 2149 1
2036 2149 2150 1
2037 2150 2151 1
2038 2151 2152 1
2039 2152 2153 1
2040 2153 2154 1
2041 2154 2155 1
2042 2155 2156 1
2043 2156 2157 1
2044 2157 2158 1
2045 2158 2159 1
2046 2159 2160 1
2047 2160 2161 1
2048 2161 2162 1
2049 2162 2163 1
2050 2163 2164 1
2051 2164 2165 1
2052 2165 2166 1
2053 2167 2168 1
2054 2168 2169 1
2055 2169 2170 1
2056 2170 2171 1
2057 2171 2172 1
2058 2172 2173 1
2059 2173 2174 1
2060 2174 2175 1
2061 2175 2176 1
2062 2176 2177 1
2063 2177 2178 1
2064 2178 2179 1
2065 2179 2180 1
2066 2180 2181 1
2067 2181 2182 1
2068 2182 2183 1
2069 2183 2184 1
2070 2184 2185 1
2071 2186 2187 1
2072 2187 2188 1
2073 2188 2189 1
2074 2189 2190 1
2075 2190 2191 1
2076 2191 2192 1
2077 2192 2193 1
2078 2193 2194 1
2079 2194 2195 1
2080 2195 2196 1
2081 2196 2197 1
2082 2197 2198 1
2083 2198 2199 1
2084 2199 2200 1
2085 2200 2201 1
2086 2201 2202 1
2087 2202 2203 1
2088 2203 2204 1
2089 2205 2206 1
2090 2206 2207 1
2091 2207 2208 1
2092 2208 2209 1
2093 2209 2210 1
2094 2210 2211 1
2095 2211 2212 1
2096 2212 2213 1
2097 2213 2214 1
2098 2214 2215 1
2099 2215 2216 1
2100 2216 2217 1
2101 2217 2218 1
2102 2218 2219 1
2103 2219 2220 1
2104 2220 2221 1
2105 2221 2222 1
2106 2222 2223 1
2107 2224 2225 1
2108 2225 2226 1
2109 2226 2227 1
2110 2227 2228 1
2111 2228 2229 1
2112 2229 2230 1
2113 2230 2231 1
2114 2231 2232 1
2115 2232 2233 1
2116 2233 2234 1
2117 2234 2235 1
2118 2235 2236 1
2119 2236 2237 1
2120 2237 2238 1
2121 2238 2239 1
2122 2239 2240 1
2123 2240 2241 1
2124 2241 2242 1
2125 2243 2244 1
2126 2244 2245 1
2127 2245 2246 1
2128 2246 2247 1
2129 2247 2248 1
2130 2248 2249 1
2131 2249 2250 1
2132 2250 2251 1
2133 2251 2252 1
2134 2252 2253 1
2135 2253 2254 1
2136 2254 2255 1
2137 2255 2256 1
2138 2256 2257 1
2139 2257 2258 1
2140 2258 2259 1
2141 2259 2260 1
2142 2260 2261 1
2143 2262 2263 1
2144 2263 2264 1
2145 2264 2265 1
2146 2265 2266 1
2147 2266 2267 1
2148 2267 2268 1
2149 2268 2269 1
2150 2269 2270 1
2151 2270 2271 1
2152 2271 2272 1
2153 2272 2273 1
2154 2273 2274 1
2155 2274 2275 1
2156 2275 2276 1
2157 2276 2277 1
2158 2277 2278 1
2159 2278 2279 1
2160 2279 2280 1
2161 2281 2282 1
2162 2282 2283 1
2163 2283 2284 1
2164 2284 2285 1
2165 2285 2286 1
2166 2286 2287 1
2167 2287 2288 1
2168 2288 2289 1
2169 2289 2290 1
2170 2290 2291 1
2171 2291 2292 1
2172 2292 2293 1
2173 2293 2294 1
2174 2294 2295 1
2175 2295 2296 1
2176 2296 2297 1
2177 2297 2298 1
2178 2298 2299 1
2179 2300 2301 1
2180 2301 2302 1
2181 2302 2303 1
2182 2303 2304 1
2183 2304 2305 1
2184 2305 2306 1
2185 2306 2307 1
2186 2307 2308 1
2187 2308 2309 1
2188 2309 2310 1
2189 2310 2311 1
2190 2311 2312 1
2191 2312 2313 1
2192 2313 2314 1
2193 2314 2315 1
2194 2315 2316 1
2195 2316 2317 1
2196 2317 2318 1
2197 2319 2320 1
2198 2320 2321 1
2199 2321 2322 1
2200 2322 2323 1
2201 2323 2324 1
2202 2324 2325 1
2203 2325 2326 1
2204 2326 2327 1
2205 2327 2328 1
2206 2328 2329 1
2207 2329 2330 1
2208 2330 2331 1
2209 2331 2332 1
2210 2332 2333 1
2211 2333 2334 1
2212 2334 2335 1
2213 2335 2336 1
2214 2336 2337 1
2215 2338 2339 1
2216 2339 2340 1
2217 2340 2341 1
2218 2341 2342 1
2219 2342 2343 1
2220 2343 2344 1
2221 2344 2345 1
2222 2345 2346 1
2223 2346 2347 1
2224 2347 2348 1
2225 2348 2349 1
2226 2349 2350 1
2227 2350 2351 1
2228 2351 2352 1
2229 2352 2353 1
2230 2353 2354 1
2231 2354 2355 1
2232 2355 2356 1
2233 2357 2358 1
2234 2358 2359 1
2235 2359 2360 1
2236 2360 2361 1
2237 2361 2362 1
2238 2362 2363 1
2239 2363 2364 1
2240 2364 2365 1
2241 2365 2366 1
2242 2366 2367 1
2243 2367 2368 1
2244 2368 2369 1
2245 2369 2370 1
2246 2370 2371 1
2247 2371 2372 1
2248 2372 2373 1
2249 2373 2374 1
2250 2374 2375 1
2251 2376 2377 1
2252 2377 2378 1
2253 2378 2379 1
2254 2379 2380 1
2255 2380 2381 1
2256 2381 2382 1
2257 2382 2383 1
2258 2383 2384 1
2259 2384 2385 1
2260 2385 2386 1
2261 2386 2387 1
2262 2387 2388 1
2263 2388 2389 1
2264 2389 2390 1
2265 2390 2391 1
2266 2391 2392 1
2267 2392 2393 1
2268 2393 2394 1
2269 2395 2396 1
2270 2396 2397 1
2271 2397 2398 1
2272 2398 2399 1
2273 2399 2400 1
2274 2400 2401 1
2275 2401 2402 1
2276 2402 2403 1
2277 2403 2404 1
2278 2404 2405 1
2279 2405 2406 1
2280 2406 2407 1
2281 2407 2408 1
2282 2408 2409 1
2283 2409 2410 1
2284 2410 2411 1
2285 2411 2412 1
2286 2412 2413 1
2287 2414 2415 1
2288 2415 2416 1
2289 2416 2417 1
2290 2417 2418 1
2291 2418 2419 1
2292 2419 2420 1
2293 2420 2421 1
2294 2421 2422 1
2295 2422 2423 1
2296 2423 2424 1
2297 2424 2425 1
2298 2425 2426 1
2299 2426 2427 1
2300 2427 2428 1
2301 2428 2429 1
2302 2429 2430 1
2303 2430 2431 1
2304 2431 2432 1
2305 2433 2434 1
2306 2434 2435 1
2307 2435 2436 1
2308 2436 2437 1
2309 2437 2438 1
2310 2438 2439 1
2311 2439 2440 1
2312 2440 2441 1
2313 2441 2442 1
2314 2442 2443 1
2315 2443 2444 1
2316 2444 2445 1
2317 2445 2446 1
2318 2446 2447 1
2319 2447 2448 1
2320 2448 2449 1
2321 2449 2450 1
2322 2450 2451 1
2323 2452 2453 1
2324 2453 2454 1
2325 2454 2455 1
2326 2455 2456 1
2327 2456 2457 1
2328 2457 2458 1
2329 2458 2459 1
2330 2459 2460 1
2331 2460 2461 1
2332 2461 2462 1
2333 2462 2463 1
2334 2463 2464 1
2335 2464 2465 1
2336 2465 2466 1
2337 2466 2467 1
2338 2467 2468 1
2339 2468 2469 1
2340 2469 2470 1
2341 2471 2472 1
2342 2472 2473 1
2343 2473 2474 1
2344 2474 2475 1
2345 2475 2476 1
2346 2476 2477 1
2347 2477 2478 1
2348 2478 2479 1
2349 2479 2480 1
2350 2480 2481 1
2351 2481 2482 1
2352 2482 2483 1
2353 2483 2484 1
2354 2484 2485 1
2355 2485 2486 1
2356 2486 2487 1
2357 2487 2488 1
2358 2488 2489 1
2359 2490 2491 1
2360 2491 2492 1
2361 2492 2493 1
2362 2493 2494 1
2363 2494 2495 1
2364 2495 2496 1
2365 2496 2497 1
2366 2497 2498 1
2367 2498 2499 1
2368 2499 2500 1
2369 2500 2501 1
2370 2501 2502 1
2371 2502 2503 1
2372 2503 2504 1
2373 2504 2505 1
2374 2505 2506 1
2375 2506 2507 1
2376 2507 2508 1
2377 2509 2510 1
2378 2510 2511 1
2379 2511 2512 1
2380 2512 2513 1
2381 2513 2514 1
2382 2514 2515 1
2383 2515 2516 1
2384 2516 2517 1
2385 2517 2518 1
2386 2518 2519 1
2387 2519 2520 1
2388 2520 2521 1
2389 2521 2522 1
2390 2522 2523 1
2391 2523 2524 1
2392 2524 2525 1
2393 2525 2526 1
2394 2526 2527 1
2395 2528 2529 1
2396 2529 2530 1
2397 2530 2531 1
2398 2531 2532 1
2399 2532 2533 1
2400 2533 2534 1
2401 2534 2535 1
2402 2535 2536 1
2403 2536 2537 1
2404 2537 2538 1
2405 2538 2539 1
2406 2539 2540 1
2407 2540 2541 1
2408 2541 2542 1
2409 2542 2543 1
2410 2543 2544 1
2411 2544 2545 1
2412 2545 2546 1
2413 2547 2548 1
2414 2548 2549 1
2415 2549 2550 1
2416 2550 2551 1
2417 2551 2552 1
2418 2552 2553 1
2419 2553 2554 1
2420 2554 2555 1
2421 2555 2556 1
2422 2556 2557 1
2423 2557 2558 1
2424 2558 2559 1
2425 2559 2560 1
2426 2560 2561 1
2427 2561 2562 1
2428 2562 2563 1
2429 2563 2564 1
2430 2564 2565 1
2431 2566 2567 1
2432 2567 2568 1
2433 2568 2569 1
2434 2569 2570 1
2435 2570 2571 1
2436 2571 2572 1
2437 2572 2573 1
2438 2573 2574 1
2439 2574 2575 1
2440 2575 2576 1
2441 2576 2577 1
2442 2577 2578 1
2443 2578 2579 1
2444 2579 2580 1
2445 2580 2581 1
2446 2581 2582 1
2447 2582 2583 1
2448 2583 2584 1
2449 2585 2586 1
2450 2586 2587 1
2451 2587 2588 1
2452 2588 2589 1
2453 2589 2590 1
2454 2590 2591 1
2455 2591 2592 1
2456 2592 2593 1
2457 2593 2594 1
2458 2594 2595 1
2459 2595 2596 1
2460 2596 2597 1
2461 2597 2598 1
2462 2598 2599 1
2463 2599 2600 1
2464 2600 2601 1
2465 2601 2602 1
2466 2602 2603 1
2467 2604 2605 1
2468 2605 2606 1
2469 2606 2607 1
2470 2607 2608 1
2471 2608 2609 1
2472 2609 2610 1
2473 2610 2611 1
2474 2611 2612 1
2475 2612 2613 1
2476 2613 2614 1
2477 2614 2615 1
2478 2615 2616 1
2479 2616 2617 1
2480 2617 2618 1
2481 2618 2619 1
2482 2619 2620 1
2483 2620 2621 1
2484 2621 2622 1
2485 2623 2624 1
2486 2624 2625 1
2487 2625 2626 1
2488 2626 2627 1
2489 2627 2628 1
2490 2628 2629 1
2491 2629 2630 1
2492 2630 2631 1
2493 2631 2632 1
2494 2632 2633 1
2495 2633 2634 1
2496 2634 2635 1
2497 2635 2636 1
2498 2636 2637 1
2499 2637 2638 1
2500 2638 2639 1
2501 2639 2640 1
2502 2640 2641 1
2503 2642 2643 1
2504 2643 2644 1
2505 2644 2645 1
2506 2645 2646 1
2507 2646 2647 1
2508 2647 2648 1
2509 2648 2649 1
2510 2649 2650 1
2511 2650 2651 1
2512 2651 2652 1
2513 2652 2653 1
2514 2653 2654 1
2515 2654 2655 1
2516 2655 2656 1
2517 2656 2657 1
2518 2657 2658 1
2519 2658 2659 1
2520 2659 2660 1
2521 2661 2662 1
2522 2662 2663 1
2523 2663 2664 1
2524 2664 2665 1
2525 2665 2666 1
2526 2666 2667 1
2527 2667 2668 1
2528 2668 2669 1
2529 2669 2670 1
2530 2670 2671 1
2531 2671 2672 1
2532 2672 2673 1
2533 2673 2674 1
2534 2674 2675 1
2535 2675 2676 1
2536 2676 2677 1
2537 2677 2678 1
2538 2678 2679 1
2539 2680 2681 1
2540 2681 2682 1
2541 2682 2683 1
2542 2683 2684 1
2543 2684 2685 1
2544 2685 2686 1
2545 2686 2687 1
2546 2687 2688 1
2547 2688 2689 1
2548 2689 2690 1
2549 2690 2691 1
2550 2691 2692 1
2551 2692 2693 1
2552 2693 2694 1
2553 2694 2695 1
2554 2695 2696 1
2555 2696 2697 1
2556 2697 2698 1
2557 2699 2700 1
2558 2700 2701 1
2559 2701 2702 1
2560 2702 2703 1
2561 2703 2704 1
2562 2704 2705 1
2563 2705 2706 1
2564 2706 2707 1
2565 2707 2708 1
2566 2708 2709 1
2567 2709 2710 1
2568 2710 2711 1
2569 2711 2712 1
2570 2712 2713 1
2571 2713 2714 1
2572 2714 2715 1
2573 2715 2716 1
2574 2716 2717 1
2575 2718 2719 1
2576 2719 2720 1
2577 2720 2721 1
2578 2721 2722 1
2579 2722 2723 1
2580 2723 2724 1
2581 2724 2725 1
2582 2725 2726 1
2583 2726 2727 1
2584 2727 2728 1
2585 2728 2729 1
2586 2729 2730 1
2587 2730 2731 1
2588 2731 2732 1
2589 2732 2733 1
2590 2733 2734 1
2591 2734 2735 1
2592 2735 2736 1
2593 2737 2738 1
2594 2738 2739 1
2595 2739 2740 1
2596 2740 2741 1
2597 2741 2742 1
2598 2742 2743 1
2599 2743 2744 1
2600 2744 2745 1
2601 2745 2746 1
2602 2746 2747 1
2603 2747 2748 1
2604 2748 2749 1
2605 2749 2750 1
2606 2750 2751 1
2607 2751 2752 1
2608 2752 2753 1
2609 2753 2754 1
2610 2754 2755 1
2611 2756 2757 1
2612 2757 2758 1
2613 2758 2759 1
2614 2759 2760 1
2615 2760 2761 1
2616 2761 2762 1
2617 2762 2763 1
2618 2763 2764 1
2619 2764 2765 1
2620 2765 2766 1
2621 2766 2767 1
2622 2767 2768 1
2623 2768 2769 1
2624 2769 2770 1
2625 2770 2771 1
2626 2771 2772 1
2627 2772 2773 1
2628 2773 2774 1
2629 2775 2776 1
2630 2776 2777 1
2631 2777 2778 1
2632 2778 2779 1
2633 2779 2780 1
2634 2780 2781 1
2635 2781 2782 1
2636 2782 2783 1
2637 2783 2784 1
2638 2784 2785 1
2639 2785 2786 1
2640 2786 2787 1
2641 2787 2788 1
2642 2788 2789 1
2643 2789 2790 1
2644 2790 2791 1
2645 2791 2792 1
2646 2792 2793 1
2647 2794 2795 1
2648 2795 2796 1
2649 2796 2797 1
2650 2797 2798 1
2651 2798 2799 1
2652 2799 2800 1
2653 2800 2801 1
2654 2801 2802 1
2655 2802 2803 1
2656 2803 2804 1
2657 2804 2805 1
2658 2805 2806 1
2659 2806 2807 1
2660 2807 2808 1
2661 2808 2809 1
2662 2809 2810 1
2663 2810 2811 1
2664 2811 2812 1
2665 2813 2814 1
2666 2814 2815 1
2667 2815 2816 1
2668 2816 2817 1
2669 2817 2818 1
2670 2818 2819 1
2671 2819 2820 1
2672 2820 2821 1
2673 2821 2822 1
2674 2822 2823 1
2675 2823 2824 1
2676 2824 2825 1
2677 2825 2826 1
2678 2826 2827 1
2679 2827 2828 1
2680 2828 2829 1
2681 2829 2830 1
2682 2830 2831 1
2683 2832 2833 1
2684 2833 2834 1
2685 2834 2835 1
2686 2835 2836 1
2687 2836 2837 1
2688 2837 2838 1
2689 2838 2839 1
2690 2839 2840 1
2691 2840 2841 1
2692 2841 2842 1
2693 2842 2843 1
2694 2843 2844 1
2695 2844 2845 1
2696 2845 2846 1
2697 2846 2847 1
2698 2847 2848 1
2699 2848 2849 1
2700 2849 2850 1
2701 2851 2852 1
2702 2852 2853 1
2703 2853 2854 1
2704 2854 2855 1
2705 2855 2856 1
2706 2856 2857 1
2707 2857 2858 1
2708 2858 2859 1
2709 2859 2860 1
2710 2860 2861 1
2711 2861 2862 1
2712 2862 2863 1
2713 2863 2864 1
2714 2864 2865 1
2715 2865 2866 1
2716 2866 2867 1
2717 2867 2868 1
2718 2868 2869 1
2719 2870 2871 1
2720 2871 2872 1
2721 2872 2873 1
2722 2873 2874 1
2723 2874 2875 1
2724 2875 2876 1
2725 2876 2877 1
2726 2877 2878 1
2727 2878 2879 1
2728 2879 2880 1
2729 2880 2881 1
2730 2881 2882 1
2731 2882 2883 1
2732 2883 2884 1
2733 2884 2885 1
2734 2885 2886 1
2735 2886 2887 1
2736 2887 2888 1
2737 2889 2890 1
2738 2890 2891 1
2739 2891 2892 1
2740 2892 2893 1
2741 2893 2894 1
2742 2894 2895 1
2743 2895 2896 1
2744 2896 2897 1
2745 2897 2898 1
2746 2898 2899 1
2747 2899 2900 1
2748 2900 2901 1
2749 2901 2902 1
2750 2902 2903 1
2751 2903 2904 1
2752 2904 2905 1
2753 2905 2906 1
2754 2906 2907 1
2755 2908 2909 1
2756 2909 2910 1
2757 2910 2911 1
2758 2911 2912 1
2759 2912 2913 1
2760 2913 2914 1
2761 2914 2915 1
2762 2915 2916 1
2763 2916 2917 1
2764 2917 2918 1
2765 2918 2919 1
2766 2919 2920 1
2767 2920 2921 1
2768 2921 2922 1
2769 2922 2923 1
2770 2923 2924 1
2771 2924 2925 1
2772 2925 2926 1
2773 2927 2928 1
2774 2928 2929 1
2775 2929 2930 1
2776 2930 2931 1
2777 2931 2932 1
2778 2932 2933 1
2779 2933 2934 1
2780 2934 2935 1
2781 2935 2936 1
2782 2936 2937 1
2783 2937 2938 1
2784 2938 2939 1
2785 2939 2940 1
2786 2940 2941 1
2787 2941 2942 1
2788 2942 2943 1
2789 2943 2944 1
2790 2944 2945 1
2791 2946 2947 1
2792 2947 2948 1
2793 2948 2949 1
2794 2949 2950 1
2795 2950 2951 1
2796 2951 2952 1
2797 2952 2953 1
2798 2953 2954 1
2799 2954 2955 1
2800 2955 2956 1
2801 2956 2957 1
2802 2957 2958 1
2803 2958 2959 1
2804 2959 2960 1
2805 2960 2961 1
2806 2961 2962 1
2807 2962 2963 1
2808 2963 2964 1
2809 2965 2966 1
2810 2966 2967 1
2811 2967 2968 1
2812 2968 2969 1
2813 2969 2970 1
2814 2970 2971 1
2815 2971 2972 1
2816 2972 2973 1
2817 2973 2974 1
2818 2974 2975 1
2819 2975 2976 1
2820 2976 2977 1
2821 2977 2978 1
2822 2978 2979 1
2823 2979 2980 1
2824 2980 2981 1
2825 2981 2982 1
2826 2982 2983 1
2827 2984 2985 1
2828 2985 2986 1
2829 2986 2987 1
2830 2987 2988 1
2831 2988 2989 1
2832 2989 2990 1
2833 2990 2991 1
2834 2991 2992 1
2835 2992 2993 1
2836 2993 2994 1
2837 2994 2995 1
2838 2995 2996 1
2839 2996 2997 1
2840 2997 2998 1
2841 2998 2999 1
2842 2999 3000 1
2843 3000 3001 1
2844 3001 3002 1
2845 3003 3004 1
2846 3004 3005 1
2847 3005 3006 1
2848 3006 3007 1
2849 3007 3008 1
2850 3008 3009 1
2851 3009 3010 1
2852 3010 3011 1
2853 3011 3012 1
2854 3012 3013 1
2855 3013 3014 1
2856 3014 3015 1
2857 3015 3016 1
2858 3016 3017 1
2859 3017 3018 1
2860 3018 3019 1
2861 3019 3020 1
2862 3020 3021 1
2863 3022 3023 1
2864 3023 3024 1
2865 3024 3025 1
2866 3025 3026 1
2867 3026 3027 1
2868 3027 3028 1
2869 3028 3029 1
2870 3029 3030 1
2871 3030 3031 1
2872 3031 3032 1
2873 3032 3033 1
2874 3033 3034 1
2875 3034 3035 1
2876 3035 3036 1
2877 3036 3037 1
2878 3037 3038 1
2879 3038 3039 1
2880 3039 3040 1
2881 3041 3042 1
2882 3042 3043 1
2883 3043 3044 1
2884 3044 3045 1
2885 3045 3046 1
2886 3046 3047 1
2887 3047 3048 1
2888 3048 3049 1
2889 3049 3050 1
2890 3050 3051 1
2891 3051 3052 1
2892 3052 3053 1
2893 3053 3054 1
2894 3054 3055 1
2895 3055 3056 1
2896 3056 3057 1
2897 3057 3058 1
2898 3058 3059 1
2899 3060 3061 1
2900 3061 3062 1
2901 3062 3063 1
2902 3063 3064 1
2903 3064 3065 1
2904 3065 3066 1
2905 3066 3067 1
2906 3067 3068 1
2907 3068 3069 1
2908 3069 3070 1
2909 3070 3071 1
2910 3071 3072 1
2911 3072 3073 1
2912 3073 3074 1
2913 3074 3075 1
2914 3075 3076 1
2915 3076 3077 1
2916 3077 3078 1
2917 3079 3080 1
2918 3080 3081 1
2919 3081 3082 1
2920 3082 3083 1
2921 3083 3084 1
2922 3084 3085 1
2923 3085 3086 1
2924 3086 3087 1
2925 3087 3088 1
2926 3088 3089 1
2927 3089 3090 1
2928 3090 3091 1
2929 3091 3092 1
2930 3092 3093 1
2931 3093 3094 1
2932 3094 3095 1
2933 3095 3096 1
2934 3096 3097 1
2935 3098 3099 1
2936 3099 3100 1
2937 3100 3101 1
2938 3101 3102 1
2939 3102 3103 1
2940 3103 3104 1
2941 3104 3105 1
2942 3105 3106 1
2943 3106 3107 1
2944 3107 3108 1
2945 3108 3109 1
2946 3109 3110 1
2947 3110 3111 1
2948 3111 3112 1
2949 3112 3113 1
2950 3113 3114 1
2951 3114 3115 1
2952 3115 3116 1
2953 3117 3118 1
2954 3118 3119 1
2955 3119 3120 1
2956 3120 3121 1
2957 3121 3122 1
2958 3122 3123 1
2959 3123 3124 1
2960 3124 3125 1
2961 3125 3126 1
2962 3126 3127 1
2963 3127 3128 1
2964 3128 3129 1
2965 3129 3130 1
2966 3130 3131 1
2967 3131 3132 1
2968 3132 3133 1
2969 3133 3134 1
2970 3134 3135 1
2971 3136 3137 1
2972 3137 3138 1
2973 3138 3139 1
2974 3139 3140 1
2975 3140 3141 1
2976 3141 3142 1
2977 3142 3143 1
2978 3143 3144 1
2979 3144 3145 1
2980 3145 3146 1
2981 3146 3147 1
2982 3147 3148 1
2983 3148 3149 1
2984 3149 3150 1
2985 3150 3151 1
2986 3151 3152 1
2987 3152 3153 1
2988 3153 3154 1
2989 3155 3156 1
2990 3156 3157 1
2991 3157 3158 1
2992 3158 3159 1
2993 3159 3160 1
2994 3160 3161 1
2995 3161 3162 1
2996 3162 3163 1
2997 3163 3164 1
2998 3164 3165 1
2999 3165 3166 1
3000 3166 3167 1
3001 3167 3168 1
3002 3168 3169 1
3003 3169 3170 1
3004 3170 3171 1
3005 3171 3172 1
3006 3172 3173 1
3007 3174 3175 1
3008 3175 3176 1
3009 3176 3177 1
3010 3177 3178 1
3011 3178 3179 1
3012 3179 3180 1
3013 3180 3181 1
3014 3181 3182 1
3015 3182 3183 1
3016 3183 3184 1
3017 3184 3185 1
3018 3185 3186 1
3019 3186 3187 1
3020 3187 3188 1
3021 3188 3189 1
3022 3189 3190 1
3023 3190 3191 1
3024 3191 3192 1
3025 3193 3194 1
3026 3194 3195 1
3027 3195 3196 1
3028 3196 3197 1
3029 3197 3198 1
3030 3198 3199 1
3031 3199 3200 1
3032 3200 3201 1
3033 3201 3202 1
3034 3202 3203 1
3035 3203 3204 1
3036 3204 3205 1
3037 3205 3206 1
3038 3206 3207 1
3039 3207 3208 1
3040 3208 3209 1
3041 3209 3210 1
3042 3210 3211 1
3043 3212 3213 1
3044 3213 3214 1
3045 3214 3215 1
3046 3215 3216 1
3047 3216 3217 1
3048 3217 3218 1
3049 3218 3219 1
3050 3219 3220 1
3051 3220 3221 1
3052 3221 3222 1
3053 3222 3223 1
3054 3223 3224 1
3055 3224 3225 1
3056 3225 3226 1
3057 3226 3227 1
3058 3227 3228 1
3059 3228 3229 1
3060 3229 3230 1
3061 3231 3232 1
3062 3232 3233 1
3063 3233 3234 1
3064 3234 3235 1
3065 3235 3236 1
3066 3236 3237 1
3067 3237 3238 1
3068 3238 3239 1
3069 3239 3240 1
3070 3240 3241 1
3071 3241 3242 1
3072 3242 3243 1
3073 3243 3244 1
3074 3244 3245 1
3075 3245 3246 1
3076 3246 3247 1
3077 3247 3248 1
3078 3248 3249 1
3079 3250 3251 1
3080 3251 3252 1
3081 3252 3253 1
3082 3253 3254 1
3083 3254 3255 1
3084 3255 3256 1
3085 3256 3257 1
3086 3257 3258 1
3087 3258 3259 1
3088 3259 3260 1
3089 3260 3261 1
3090 3261 3262 1
3091 3262 3263 1
3092 3263 3264 1
3093 3264 3265 1
3094 3265 3266 1
3095 3266 3267 1
3096 3267 3268 1
3097 3269 3270 1
3098 3270 3271 1
3099 3271 3272 1
3100 3272 3273 1
3101 3273 3274 1
3102 3274 3275 1
3103 3275 3276 1
3104 3276 3277 1
3105 3277 3278 1
3106 3278 3279 1
3107 3279 3280 1
3108 3280 3281 1
3109 3281 3282 1
3110 3282 3283 1
3111 3283 3284 1
3112 3284 3285 1
3113 3285 3286 1
3114 3286 3287 1
3115 3288 3289 1
3116 3289 3290 1
3117 3290 3291 1
3118 3291 3292 1
3119 3292 3293 1
3120 3293 3294 1
3121 3294 3295 1
3122 3295 3296 1
3123 3296 3297 1
3124 3297 3298 1
3125 3298 3299 1
3126 3299 3300 1
3127 3300 3301 1
3128 3301 3302 1
3129 3302 3303 1
3130 3303 3304 1
3131 3304 3305 1
3132 3305 3306 1
3133 3307 3308 1
3134 3308 3309 1
3135 3309 3310 1
3136 3310 3311 1
3137 3311 3312 1
3138 3312 3313 1
3139 3313 3314 1
3140 3314 3315 1
3141 3315 3316 1
3142 3316 3317 1
3143 3317 3318 1
3144 3318 3319 1
3145 3319 3320 1
3146 3320 3321 1
3147 3321 3322 1
3148 3322 3323 1
3149 3323 3324 1
3150 3324 3325 1
3151 3326 3327 1
3152 3327 3328 1
3153 3328 3329 1
3154 3329 3330 1
3155 3330 3331 1
3156 3331 3332 1
3157 3332 3333 1
3158 3333 3334 1
3159 3334 3335 1
3160 3335 3336 1
3161 3336 3337 1
3162 3337 3338 1
3163 3338 3339 1
3164 3339 3340 1
3165 3340 3341 1
3166 3341 3342 1
3167 3342 3343 1
3168 3343 3344 1
3169 3345 3346 1
3170 3346 3347 1
3171 3347 3348 1
3172 3348 3349 1
3173 3349 3350 1
3174 3350 3351 1
3175 3351 3352 1
3176 3352 3353 1
3177 3353 3354 1
3178 3354 3355 1
3179 3355 3356 1
3180 3356 3357 1
3181 3357 3358 1
3182 3358 3359 1
3183 3359 3360 1
3184 3360 3361 1
3185 3361 3362 1
3186 3362 3363 1
3187 3364 3365 1
3188 3365 3366 1
3189 3366 3367 1
3190 3367 3368 1
3191 3368 3369 1
3192 3369 3370 1
3193 3370 3371 1
3194 3371 3372 1
3195 3372 3373 1
3196 3373 3374 1
3197 3374 3375 1
3198 3375 3376 1
3199 3376 3377 1
3200 3377 3378 1
3201 3378 3379 1
3202 3379 3380 1
3203 3380 3381 1
3204 3381 3382 1
3205 3383 3384 1
3206 3384 3385 1
3207 3385 3386 1
3208 3386 3387 1
3209 3387 3388 1
3210 3388 3389 1
3211 3389 3390 1
3212 3390 3391 1
3213 3391 3392 1
3214 3392 3393 1
3215 3393 3394 1
3216 3394 3395 1
3217 3395 3396 1
3218 3396 3397 1
3219 3397 3398 1
3220 3398 3399 1
3221 3399 3400 1
3222 3400 3401 1
3223 3402 3403 1
3224 3403 3404 1
3225 3404 3405 1
3226 3405 3406 1
3227 3406 3407 1
3228 3407 3408 1
3229 3408 3409 1
3230 3409 3410 1
3231 3410 3411 1
3232 3411 3412 1
3233 3412 3413 1
3234 3413 3414 1
3235 3414 3415 1
3236 3415 3416 1
3237 3416 3417 1
3238 3417 3418 1
3239 3418 3419 1
3240 3419 3420 1
3241 3421 3422 1
3242 3422 3423 1
3243 3423 3424 1
3244 3424 3425 1
3245 3425 3426 1
3246 3426 3427 1
3247 3427 3428 1
3248 3428 3429 1
3249 3429 3430 1
3250 3430 3431 1
3251 3431 3432 1
3252 3432 3433 1
3253 3433 3434 1
3254 3434 3435 1
3255 3435 3436 1
3256 3436 3437 1
3257 3437 3438 1
3258 3438 3439 1
3259 3440 3441 1
3260 3441 3442 1
3261 3442 3443 1
3262 3443 3444 1
3263 3444 3445 1
3264 3445 3446 1
3265 3446 3447 1
3266 3447 3448 1
3267 3448 3449 1
3268 3449 3450 1
3269 3450 3451 1
3270 3451 3452 1
3271 3452 3453 1
3272 3453 3454 1
3273 3454 3455 1
3274 3455 3456 1
3275 3456 3457 1
3276 3457 3458 1
3277 3459 3460 1
3278 3460 3461 1
3279 3461 3462 1
3280 3462 3463 1
3281 3463 3464 1
3282 3464 3465 1
3283 3465 3466 1
3284 3466 3467 1
3285 3467 3468 1
3286 3468 3469 1
3287 3469 3470 1
3288 3470 3471 1
3289 3471 3472 1
3290 3472 3473 1
3291 3473 3474 1
3292 3474 3475 1
3293 3475 3476 1
3294 3476 3477 1
3295 3478 3479 1
3296 3479 3480 1
3297 3480 3481 1
3298 3481 3482 1
3299 3482 3483 1
3300 3483 3484 1
3301 3484 3485 1
3302 3485 3486 1
3303 3486 3487 1
3304 3487 3488 1
3305 3488 3489 1
3306 3489 3490 1
3307 3490 3491 1
3308 3491 3492 1
3309 3492 3493 1
3310 3493 3494 1
3311 3494 3495 1
3312 3495 3496 1
3313 3497 3498 1
3314 3498 3499 1
3315 3499 3500 1
3316 3500 3501 1
3317 3501 3502 1
3318 3502 3503 1
3319 3503 3504 1
3320 3504 3505 1
3321 3505 3506 1
3322 3506 3507 1
3323 3507 3508 1
3324 3508 3509 1
3325 3509 3510 1
3326 3510 3511 1
3327 3511 3512 1
3328 3512 3513 1
3329 3513 3514 1
3330 3514 3515 1
3331 3516 3517 1
3332 3517 3518 1
3333 3518 3519 1
3334 3519 3520 1
3335 3520 3521 1
3336 3521 3522 1
3337 3522 3523 1
3338 3523 3524 1
3339 3524 3525 1
3340 3525 3526 1
3341 3526 3527 1
3342 3527 3528 1
3343 3528 3529 1
3344 3529 3530 1
3345 3530 3531 1
3346 3531 3532 1
3347 3532 3533 1
3348 3533 3534 1
3349 3535 3536 1
3350 3536 3537 1
3351 3537 3538 1
3352 3538 3539 1
3353 3539 3540 1
3354 3540 3541 1
3355 3541 3542 1
3356 3542 3543 1
3357 3543 3544 1
3358 3544 3545 1
3359 3545 3546 1
3360 3546 3547 1
3361 3547 3548 1
3362 3548 3549 1
3363 3549 3550 1
3364 3550 3551 1
3365 3551 3552 1
3366 3552 3553 1
3367 3554 3555 1
3368 3555 3556 1
3369 3556 3557 1
3370 3557 3558 1
3371 3558 3559 1
3372 3559 3560 1
3373 3560 3561 1
3374 3561 3562 1
3375 3562 3563 1
3376 3563 3564 1
3377 3564 3565 1
3378 3565 3566 1
3379 3566 3567 1
3380 3567 3568 1
3381 3568 3569 1
3382 3569 3570 1
3383 3570 3571 1
3384 3571 3572 1
3385 3573 3574 1
3386 3574 3575 1
3387 3575 3576 1
3388 3576 3577 1
3389 3577 3578 1
3390 3578 3579 1
3391 3579 3580 1
3392 3580 3581 1
3393 3581 3582 1
3394 3582 3583 1
3395 3583 3584 1
3396 3584 3585 1
3397 3585 3586 1
3398 3586 3587 1
3399 3587 3588 1
3400 3588 3589 1
3401 3589 3590 1
3402 3590 3591 1
3403 3592 3593 1
3404 3593 3594 1
3405 3594 3595 1
3406 3595 3596 1
3407 3596 3597 1
3408 3597 3598 1
3409 3598 3599 1
3410 3599 3600 1
3411 3600 3601 1
3412 3601 3602 1
3413 3602 3603 1
3414 3603 3604 1
3415 3604 3605 1
3416 3605 3606 1
3417 3606 3607 1
3418 3607 3608 1
3419 3608 3609 1
3420 3609 3610 1
3421 3611 3612 1
3422 3612 3613 1
3423 3613 3614 1
3424 3614 3615 1
3425 3615 3616 1
3426 3616 3617 1
3427 3617 3618 1
3428 3618 3619 1
3429 3619 3620 1
3430 3620 3621 1
3431 3621 3622 1
3432 3622 3623 1
3433 3623 3624 1
3434 3624 3625 1
3435 3625 3626 1
3436 3626 3627 1
3437 3627 3628 1
3438 3628 3629 1
3439 3630 3631 1
3440 3631 3632 1
3441 3632 3633 1
3442 3633 3634 1
3443 3634 3635 1
3444 3635 3636 1
3445 3636 3637 1
3446 3637 3638 1
3447 3638 3639 1
3448 3639 3640 1
3449 3640 3641 1
3450 3641 3642 1
3451 3642 3643 1
3452 3643 3644 1
3453 3644 3645 1
3454 3645 3646 1
3455 3646 3647 1
3456 3647 3648 1
3457 3649 3650 1
3458 3650 3651 1
3459 3651 3652 1
3460 3652 3653 1
3461 3653 3654 1
3462 3654 3655 1
3463 3655 3656 1
3464 3656 3657 1
3465 3657 3658 1
3466 3658 3659 1
3467 3659 3660 1
3468 3660 3661 1
3469 3661 3662 1
3470 3662 3663 1
3471 3663 3664 1
3472 3664 3665 1
3473 3665 3666 1
3474 3666 3667 1
3475 3668 3669 1
3476 3669 3670 1
3477 3670 3671 1
3478 3671 3672 1
3479 3672 3673 1
3480 3673 3674 1
3481 3674 3675 1
3482 3675 3676 1
3483 3676 3677 1
3484 3677 3678 1
3485 3678 3679 1
3486 3679 3680 1
3487 3680 3681 1
3488 3681 3682 1
3489 3682 3683 1
3490 3683 3684 1
3491 3684 3685 1
3492 3685 3686 1
3493 3687 3688 1
3494 3688 3689 1
3495 3689 3690 1
3496 3690 3691 1
3497 3691 3692 1
3498 3692 3693 1
3499 3693 3694 1
3500 3694 3695 1
3501 3695 3696 1
3502 3696 3697 1
3503 3697 3698 1
3504 3698 3699 1
3505 3699 3700 1
3506 3700 3701 1
3507 3701 3702 1
3508 3702 3703 1
3509 3703 3704 1
3510 3704 3705 1
3511 3706 3707 1
3512 3707 3708 1
3513 3708 3709 1
3514 3709 3710 1
3515 3710 3711 1
3516 3711 3712 1
3517 3712 3713 1
3518 3713 3714 1
3519 3714 3715 1
3520 3715 3716 1
3521 3716 3717 1
3522 3717 3718 1
3523 3718 3719 1
3524 3719 3720 1
3525 3720 3721 1
3526 3721 3722 1
3527 3722 3723 1
3528 3723 3724 1
3529 3725 3726 1
3530 3726 3727 1
3531 3727 3728 1
3532 3728 3729 1
3533 3729 3730 1
3534 3730 3731 1
3535 3731 3732 1
3536 3732 3733 1
3537 3733 3734 1
3538 3734 3735 1
3539 3735 3736 1
3540 3736 3737 1
3541 3737 3738 1
3542 3738 3739 1
3543 3739 3740 1
3544 3740 3741 1
3545 3741 3742 1
3546 3742 3743 1
3547 3744 3745 1
3548 3745 3746 1
3549 3746 3747 1
3550 3747 3748 1
3551 3748 3749 1
3552 3749 3750 1
3553 3750 3751 1
3554 3751 3752 1
3555 3752 3753 1
3556 3753 3754 1
3557 3754 3755 1
3558 3755 3756 1
3559 3756 3757 1
3560 3757 3758 1
3561 3758 3759 1
3562 3759 3760 1
3563 3760 3761 1
3564 3761 3762 1
3565 3763 3764 1
3566 3764 3765 1
3567 3765 3766 1
3568 3766 3767 1
3569 3767 3768 1
3570 3768 3769 1
3571 3769 3770 1
3572 3770 3771 1
3573 3771 3772 1
3574 3772 3773 1
3575 3773 3774 1
3576 3774 3775 1
3577 3775 3776 1
3578 3776 3777 1
3579 3777 3778 1
3580 3778 3779 1
3581 3779 3780 1
3582 3780 3781 1
3583 3782 3783 1
3584 3783 3784 1
3585 3784 3785 1
3586 3785 3786 1
3587 3786 3787 1
3588 3787 3788 1
3589 3788 3789 1
3590 3789 3790 1
3591 3790 3791 1
3592 3791 3792 1
3593 3792 3793 1
3594 3793 3794 1
3595 3794 3795 1
3596 3795 3796 1
3597 3796 3797 1
3598 3797 3798 1
3599 3798 3799 1
3600 3799 3800 1
3601 3801 3802 1
3602 3802 3803 1
3603 3803 3804 1
3604 3804 3805 1
3605 3805 3806 1
3606 3806 3807 1
3607 3807 3808 1
3608 3808 3809 1
3609 3809 3810 1
3610 3810 3811 1
3611 3811 3812 1
3612 3812 3813 1
3613 3813 3814 1
3614 3814 3815 1
3615 3815 3816 1
3616 3816 3817 1
3617 3817 3818 1
3618 3818 3819 1
3619 3820 3821 1
3620 3821 3822 1
3621 3822 3823 1
3622 3823 3824 1
3623 3824 3825 1
3624 3825 3826 1
3625 3826 3827 1
3626 3827 3828 1
3627 3828 3829 1
3628 3829 3830 1
3629 3830 3831 1
3630 3831 3832 1
3631 3832 3833 1
3632 3833 3834 1
3633 3834 3835 1
3634 3835 3836 1
3635 3836 3837 1
3636 3837 3838 1
3637 3839 3840 1
3638 3840 3841 1
3639 3841 3842 1
3640 3842 3843 1
3641 3843 3844 1
3642 3844 3845 1
3643 3845 3846 1
3644 3846 3847 1
3645 3847 3848 1
3646 3848 3849 1
3647 3849 3850 1
3648 3850 3851 1
3649 3851 3852 1
3650 3852 3853 1
3651 3853 3854 1
3652 3854 3855 1
3653 3855 3856 1
3654 3856 3857 1
3655 3858 3859 1
3656 3859 3860 1
3657 3860 3861 1
3658 3861 3862 1
3659 3862 3863 1
3660 3863 3864 1
3661 3864 3865 1
3662 3865 3866 1
3663 3866 3867 1
3664 3867 3868 1
3665 3868 3869 1
3666 3869 3870 1
3667 3870 3871 1
3668 3871 3872 1
3669 3872 3873 1
3670 3873 3874 1
3671 3874 3875 1
3672 3875 3876 1
3673 3877 3878 1
3674 3878 3879 1
3675 3879 3880 1
3676 3880 3881 1
3677 3881 3882 1
3678 3882 3883 1
3679 3883 3884 1
3680 3884 3885 1
3681 3885 3886 1
3682 3886 3887 1
3683 3887 3888 1
3684 3888 3889 1
3685 3889 3890 1
3686 3890 3891 1
3687 3891 3892 1
3688 3892 3893 1
3689 3893 3894 1
3690 3894 3895 1
3691 3896 3897 1
3692 3897 3898 1
3693 3898 3899 1
3694 3899 3900 1
3695 3900 3901 1
3696 3901 3902 1
3697 3902 3903 1
3698 3903 3904 1
3699 3904 3905 1
3700 3905 3906 1
3701 3906 3907 1
3702 3907 3908 1
3703 3908 3909 1
3704 3909 3910 1
3705 3910 3911 1
3706 3911 3912 1
3707 3912 3913 1
3708 3913 3914 1
3709 3915 3916 1
3710 3916 3917 1
3711 3917 3918 1
3712 3918 3919 1
3713 3919 3920 1
3714 3920 3921 1
3715 3921 3922 1
3716 3922 3923 1
3717 3923 3924 1
3718 3924 3925 1
3719 3925 3926 1
3720 3926 3927 1
3721 3927 3928 1
3722 3928 3929 1
3723 3929 3930 1
3724 3930 3931 1
3725 3931 3932 1
3726 3932 3933 1
3727 3934 3935 1
3728 3935 3936 1
3729 3936 3937 1
3730 3937 3938 1
3731 3938 3939 1
3732 3939 3940 1
3733 3940 3941 1
3734 3941 3942 1
3735 3942 3943 1
3736 3943 3944 1
3737 3944 3945 1
3738 3945 3946 1
3739 3946 3947 1
3740 3947 3948 1
3741 3948 3949 1
3742 3949 3950 1
3743 3950 3951 1
3744 3951 3952 1
3745 3953 3954 1
3746 3954 3955 1
3747 3955 3956 1
3748 3956 3957 1
3749 3957 3958 1
3750 3958 3959 1
3751 3959 3960 1
3752 3960 3961 1
3753 3961 3962 1
3754 3962 3963 1
3755 3963 3964 1
3756 3964 3965 1
3757 3965 3966 1
3758 3966 3967 1
3759 3967 3968 1
3760 3968 3969 1
3761 3969 3970 1
3762 3970 3971 1
3763 3972 3973 1
3764 3973 3974 1
3765 3974 3975 1
3766 3975 3976 1
3767 3976 3977 1
3768 3977 3978 1
3769 3978 3979 1
3770 3979 3980 1
3771 3980 3981 1
3772 3981 3982 1
3773 3982 3983 1
3774 3983 3984 1
3775 3984 3985 1
3776 3985 3986 1
3777 3986 3987 1
3778 3987 3988 1
3779 3988 3989 1
3780 3989 3990 1
3781 3991 3992 1
3782 3992 3993 1
3783 3993 3994 1
3784 3994 3995 1
3785 3995 3996 1
3786 3996 3997 1
3787 3997 3998 1
3788 3998 3999 1
3789 3999 4000 1
3790 4000 4001 1
3791 4001 4002 1
3792 4002 4003 1
3793 4003 4004 1
3794 4004 4005 1
3795 4005 4006 1
3796 4006 4007 1
3797 4007 4008 1
3798 4008 4009 1
3799 4010 4011 1
3800 4011 4012 1
3801 4012 4013 1
3802 4013 4014 1
3803 4014 4015 1
3804 4015 4016 1
3805 4016 4017 1
3806 4017 4018 1
3807 4018 4019 1
3808 4019 4020 1
3809 4020 4021 1
3810 4021 4022 1
3811 4022 4023 1
3812 4023 4024 1
3813 4024 4025 1
3814 4025 4026 1
3815 4026 4027 1
3816 4027 4028 1
3817 4029 4030 1
3818 4030 4031 1
3819 4031 4032 1
3820 4032 4033 1
3821 4033 4034 1
3822 4034 4035 1
3823 4035 4036 1
3824 4036 4037 1
3825 4037 4038 1
3826 4038 4039 1
3827 4039 4040 1
3828 4040 4041 1
3829 4041 4042 1
3830 4042 4043 1
3831 4043 4044 1
3832 4044 4045 1
3833 4045 4046 1
3834 4046 4047 1
3835 4048 4049 1
3836 4049 4050 1
3837 4050 4051 1
3838 4051 4052 1
3839 4052 4053 1
3840 4053 4054 1
3841 4054 4055 1
3842 4055 4056 1
3843 4056 4057 1
3844 4057 4058 1
3845 4058 4059 1
3846 4059 4060 1
3847 4060 4061 1
3848 4061 4062 1
3849 4062 4063 1
3850 4063 4064 1
3851 4064 4065 1
3852 4065 4066 1
3853 4067 4068 1
3854 4068 4069 1
3855 4069 4070 1
3856 4070 4071 1
3857 4071 4072 1
3858 4072 4073 1
3859 4073 4074 1
3860 4074 4075 1
3861 4075 4076 1
3862 4076 4077 1
3863 4077 4078 1
3864 4078 4079 1
3865 4079 4080 1
3866 4080 4081 1
3867 4081 4082 1
3868 4082 4083 1
3869 4083 4084 1
3870 4084 4085 1
3871 4086 4087 1
3872 4087 4088 1
3873 4088 4089 1
3874 4089 4090 1
3875 4090 4091 1
3876 4091 4092 1
3877 4092 4093 1
3878 4093 4094 1
3879 4094 4095 1
3880 4095 4096 1
3881 4096 4097 1
3882 4097 4098 1
3883 4098 4099 1
3884 4099 4100 1
3885 4100 4101 1
3886 4101 4102 1
3887 4102 4103 1
3888 4103 4104 1
3889 4105 4106 1
3890 4106 4107 1
3891 4107 4108 1
3892 4108 4109 1
3893 4109 4110 1
3894 4110 4111 1
3895 4111 4112 1
3896 4112 4113 1
3897 4113 4114 1
3898 4114 4115 1
3899 4115 4116 1
3900 4116 4117 1
3901 4117 4118 1
3902 4118 4119 1
3903 4119 4120 1
3904 4120 4121 1
3905 4121 4122 1
3906 4122 4123 1
3907 4124 4125 1
3908 4125 4126 1
3909 4126 4127 1
3910 4127 4128 1
3911 4128 4129 1
3912 4129 4130 1
3913 4130 4131 1
3914 4131 4132 1
3915 4132 4133 1
3916 4133 4134 1
3917 4134 4135 1
3918 4135 4136 1
3919 4136 4137 1
3920 4137 4138 1
3921 4138 4139 1
3922 4139 4140 1
3923 4140 4141 1
3924 4141 4142 1
3925 4143 4144 1
3926 4144 4145 1
3927 4145 4146 1
3928 4146 4147 1
3929 4147 4148 1
3930 4148 4149 1
3931 4149 4150 1
3932 4150 4151 1
3933 4151 4152 1
3934 4152 4153 1
3935 4153 4154 1
3936 4154 4155 1
3937 4155 4156 1
3938 4156 4157 1
3939 4157 4158 1
3940 4158 4159 1
3941 4159 4160 1
3942 4160 4161 1
3943 4162 4163 1
3944 4163 4164 1
3945 4164 4165 1
3946 4165 4166 1
3947 4166 4167 1
3948 4167 4168 1
3949 4168 4169 1
3950 4169 4170 1
3951 4170 4171 1
3952 4171 4172 1
3953 4172 4173 1
3954 4173 4174 1
3955 4174 4175 1
3956 4175 4176 1
3957 4176 4177 1
3958 4177 4178 1
3959 4178 4179 1
3960 4179 4180 1
3961 4181 4182 1
3962 4182 4183 1
3963 4183 4184 1
3964 4184 4185 1
3965 4185 4186 1
3966 4186 4187 1
3967 4187 4188 1
3968 4188 4189 1
3969 4189 4190 1
3970 4190 4191 1
3971 4191 4192 1
3972 4192 4193 1
3973 4193 4194 1
3974 4194 4195 1
3975 4195 4196 1
3976 4196 4197 1
3977 4197 4198 1
3978 4198 4199 1
3979 4200 4201 1
3980 4201 4202 1
3981 4202 4203 1
3982 4203 4204 1
3983 4204 4205 1
3984 4205 4206 1
3985 4206 4207 1
3986 4207 4208 1
3987 4208 4209 1
3988 4209 4210 1
3989 4210 4211 1
3990 4211 4212 1
3991 4212 4213 1
3992 4213 4214 1
3993 4214 4215 1
3994 4215 4216 1
3995 4216 4217 1
3996 4217 4218 1
3997 4219 4220 1
3998 4220 4221 1
3999 4221 4222 1
4000 4222 4223 1
4001 4223 4224 1
4002 4224 4225 1
4003 4225 4226 1
4004 4226 4227 1
4005 4227 4228 1
4006 4228 4229 1
4007 4229 4230 1
4008 4230 4231 1
4009 4231 4232 1
4010 4232 4233 1
4011 4233 4234 1
4012 4234 4235 1
4013 4235 4236 1
4014 4236 4237 1
4015 4238 4239 1
4016 4239 4240 1
4017 4240 4241 1
4018 4241 4242 1
4019 4242 4243 1
4020 4243 4244 1
4021 4244 4245 1
4022 4245 4246 1
4023 4246 4247 1
4024 4247 4248 1
4025 4248 4249 1
4026 4249 4250 1
4027 4250 4251 1
4028 4251 4252 1
4029 4252 4253 1
4030 4253 4254 1
4031 4254 4255 1
4032 4255 4256 1
4033 4257 4258 1
4034 4258 4259 1
4035 4259 4260 1
4036 4260 4261 1
4037 4261 4262 1
4038 4262 4263 1
4039 4263 4264 1
4040 4264 4265 1
4041 4265 4266 1
4042 4266 4267 1
4043 4267 4268 1
4044 4268 4269 1
4045 4269 4270 1
4046 4270 4271 1
4047 4271 4272 1
4048 4272 4273 1
4049 4273 4274 1
4050 4274 4275 1
4051 4276 4277 1
4052 4277 4278 1
4053 4278 4279 1
4054 4279 4280 1
4055 4280 4281 1
4056 4281 4282 1
4057 4282 4283 1
4058 4283 4284 1
4059 4284 4285 1
4060 4285 4286 1
4061 4286 4287 1
4062 4287 4288 1
4063 4288 4289 1
4064 4289 4290 1
4065 4290 4291 1
4066 4291 4292 1
4067 4292 4293 1
4068 4293 4294 1
4069 4295 4296 1
4070 4296 4297 1
4071 4297 4298 1
4072 4298 4299 1
4073 4299 4300 1
4074 4300 4301 1
4075 4301 4302 1
4076 4302 4303 1
4077 4303 4304 1
4078 4304 4305 1
4079 4305 4306 1
4080 4306 4307 1
4081 4307 4308 1
4082 4308 4309 1
4083 4309 4310 1
4084 4310 4311 1
4085 4311 4312 1
4086 4312 4313 1
4087 4314 4315 1
4088 4315 4316 1
4089 4316 4317 1
4090 4317 4318 1
4091 4318 4319 1
4092 4319 4320 1
4093 4320 4321 1
4094 4321 4322 1
4095 4322 4323 1
4096 4323 4324 1
4097 4324 4325 1
4098 4325 4326 1
4099 4326 4327 1
4100 4327 4328 1
4101 4328 4329 1
4102 4329 4330 1
4103 4330 4331 1
4104 4331 4332 1
4105 4333 4334 1
4106 4334 4335 1
4107 4335 4336 1
4108 4336 4337 1
4109 4337 4338 1
4110 4338 4339 1
4111 4339 4340 1
4112 4340 4341 1
4113 4341 4342 1
4114 4342 4343 1
4115 4343 4344 1
4116 4344 4345 1
4117 4345 4346 1
4118 4346 4347 1
4119 4347 4348 1
4120 4348 4349 1
4121 4349 4350 1
4122 4350 4351 1
4123 4352 4353 1
4124 4353 4354 1
4125 4354 4355 1
4126 4355 4356 1
4127 4356 4357 1
4128 4357 4358 1
4129 4358 4359 1
4130 4359 4360 1
4131 4360 4361 1
4132 4361 4362 1
4133 4362 4363 1
4134 4363 4364 1
4135 4364 4365 1
4136 4365 4366 1
4137 4366 4367 1
4138 4367 4368 1
4139 4368 4369 1
4140 4369 4370 1
4141 4371 4372 1
4142 4372 4373 1
4143 4373 4374 1
4144 4374 4375 1
4145 4375 4376 1
4146 4376 4377 1
4147 4377 4378 1
4148 4378 4379 1
4149 4379 4380 1
4150 4380 4381 1
4151 4381 4382 1
4152 4382 4383 1
4153 4383 4384 1
4154 4384 4385 1
4155 4385 4386 1
4156 4386 4387 1
4157 4387 4388 1
4158 4388 4389 1
4159 4390 4391 1
4160 4391 4392 1
4161 4392 4393 1
4162 4393 4394 1
4163 4394 4395 1
4164 4395 4396 1
4165 4396 4397 1
4166 4397 4398 1
4167 4398 4399 1
4168 4399 4400 1
4169 4400 4401 1
4170 4401 4402 1
4171 4402 4403 1
4172 4403 4404 1
4173 4404 4405 1
4174 4405 4406 1
4175 4406 4407 1
4176 4407 4408 1
4177 4409 4410 1
4178 4410 4411 1
4179 4411 4412 1
4180 4412 4413 1
4181 4413 4414 1
4182 4414 4415 1
4183 4415 4416 1
4184 4416 4417 1
4185 4417 4418 1
4186 4418 4419 1
4187 4419 4420 1
4188 4420 4421 1
4189 4421 4422 1
4190 4422 4423 1
4191 4423 4424 1
4192 4424 4425 1
4193 4425 4426 1
4194 4426 4427 1
4195 4428 4429 1
4196 4429 4430 1
4197 4430 4431 1
4198 4431 4432 1
4199 4432 4433 1
4200 4433 4434 1
4201 4434 4435 1
4202 4435 4436 1
4203 4436 4437 1
4204 4437 4438 1
4205 4438 4439 1
4206 4439 4440 1
4207 4440 4441 1
4208 4441 4442 1
4209 4442 4443 1
4210 4443 4444 1
4211 4444 4445 1
4212 4445 4446 1
4213 4447 4448 1
4214 4448 4449 1
4215 4449 4450 1
4216 4450 4451 1
4217 4451 4452 1
4218 4452 4453 1
4219 4453 4454 1
4220 4454 4455 1
4221 4455 4456 1
4222 4456 4457 1
4223 4457 4458 1
4224 4458 4459 1
4225 4459 4460 1
4226 4460 4461 1
4227 4461 4462 1
4228 4462 4463 1
4229 4463 4464 1
4230 4464 4465 1
4231 4466 4467 1
4232 4467 4468 1
4233 4468 4469 1
4234 4469 4470 1
4235 4470 4471 1
4236 4471 4472 1
4237 4472 4473 1
4238 4473 4474 1
4239 4474 4475 1
4240 4475 4476 1
4241 4476 4477 1
4242 4477 4478 1
4243 4478 4479 1
4244 4479 4480 1
4245 4480 4481 1
4246 4481 4482 1
4247 4482 4483 1
4248 4483 4484 1
4249 4485 4486 1
4250 4486 4487 1
4251 4487 4488 1
4252 4488 4489 1
4253 4489 4490 1
4254 4490 4491 1
4255 4491 4492 1
4256 4492 4493 1
4257 4493 4494 1
4258 4494 4495 1
4259 4495 4496 1
4260 4496 4497 1
4261 4497 4498 1
4262 4498 4499 1
4263 4499 4500 1
4264 4500 4501 1
4265 4501 4502 1
4266 4502 4503 1
4267 4504 4505 1
4268 4505 4506 1
4269 4506 4507 1
4270 4507 4508 1
4271 4508 4509 1
4272 4509 4510 1
4273 4510 4511 1
4274 4511 4512 1
4275 4512 4513 1
4276 4513 4514 1
4277 4514 4515 1
4278 4515 4516 1
4279 4516 4517 1
4280 4517 4518 1
4281 4518 4519 1
4282 4519 4520 1
4283 4520 4521 1
4284 4521 4522 1
4285 4523 4524 1
4286 4524 4525 1
4287 4525 4526 1
4288 4526 4527 1
4289 4527 4528 1
4290 4528 4529 1
4291 4529 4530 1
4292 4530 4531 1
4293 4531 4532 1
4294 4532 4533 1
4295 4533 4534 1
4296 4534 4535 1
4297 4535 4536 1
4298 4536 4537 1
4299 4537 4538 1
4300 4538 4539 1
4301 4539 4540 1
4302 4540 4541 1
4303 4542 4543 1
4304 4543 4544 1
4305 4544 4545 1
4306 4545 4546 1
4307 4546 4547 1
4308 4547 4548 1
4309 4548 4549 1
4310 4549 4550 1
4311 4550 4551 1
4312 4551 4552 1
4313 4552 4553 1
4314 4553 4554 1
4315 4554 4555 1
4316 4555 4556 1
4317 4556 4557 1
4318 4557 4558 1
4319 4558 4559 1
4320 4559 4560 1
4321 4561 4562 1
4322 4562 4563 1
4323 4563 4564 1
4324 4564 4565 1
4325 4565 4566 1
4326 4566 4567 1
4327 4567 4568 1
4328 4568 4569 1
4329 4569 4570 1
4330 4570 4571 1
4331 4571 4572 1
4332 4572 4573 1
4333 4573 4574 1
4334 4574 4575 1
4335 4575 4576 1
4336 4576 4577 1
4337 4577 4578 1
4338 4578 4579 1
4339 4580 4581 1
4340 4581 4582 1
4341 4582 4583 1
4342 4583 4584 1
4343 4584 4585 1
4344 4585 4586 1
4345 4586 4587 1
4346 4587 4588 1
4347 4588 4589 1
4348 4589 4590 1
4349 4590 4591 1
4350 4591 4592 1
4351 4592 4593 1
4352 4593 4594 1
4353 4594 4595 1
4354 4595 4596 1
4355 4596 4597 1
4356 4597 4598 1
4357 4599 4600 1
4358 4600 4601 1
4359 4601 4602 1
4360 4602 4603 1
4361 4603 4604 1
4362 4604 4605 1
4363 4605 4606 1
4364 4606 4607 1
4365 4607 4608 1
4366 4608 4609 1
4367 4609 4610 1
4368 4610 4611 1
4369 4611 4612 1
4370 4612 4613 1
4371 4613 4614 1
4372 4614 4615 1
4373 4615 4616 1
4374 4616 4617 1
4375 4618 4619 1
4376 4619 4620 1
4377 4620 4621 1
4378 4621 4622 1
4379 4622 4623 1
4380 4623 4624 1
4381 4624 4625 1
4382 4625 4626 1
4383 4626 4627 1
4384 4627 4628 1
4385 4628 4629 1
4386 4629 4630 1
4387 4630 4631 1
4388 4631 4632 1
4389 4632 4633 1
4390 4633 4634 1
4391 4634 4635 1
4392 4635 4636 1
4393 4637 4638 1
4394 4638 4639 1
4395 4639 4640 1
4396 4640 4641 1
4397 4641 4642 1
4398 4642 4643 1
4399 4643 4644 1
4400 4644 4645 1
4401 4645 4646 1
4402 4646 4647 1
4403 4647 4648 1
4404 4648 4649 1
4405 4649 4650 1
4406 4650 4651 1
4407 4651 4652 1
4408 4652 4653 1
4409 4653 4654 1
4410 4654 4655 1
4411 4656 4657 1
4412 4657 4658 1
4413 4658 4659 1
4414 4659 4660 1
4415 4660 4661 1
4416 4661 4662 1
4417 4662 4663 1
4418 4663 4664 1
4419 4664 4665 1
4420 4665 4666 1
4421 4666 4667 1
4422 4667 4668 1
4423 4668 4669 1
4424 4669 4670 1
4425 4670 4671 1
4426 4671 4672 1
4427 4672 4673 1
4428 4673 4674 1
4429 4675 4676 1
4430 4676 4677 1
4431 4677 4678 1
4432 4678 4679 1
4433 4679 4680 1
4434 4680 4681 1
4435 4681 4682 1
4436 4682 4683 1
4437 4683 4684 1
4438 4684 4685 1
4439 4685 4686 1
4440 4686 4687 1
4441 4687 4688 1
4442 4688 4689 1
4443 4689 4690 1
4444 4690 4691 1
4445 4691 4692 1
4446 4692 4693 1
4447 4694 4695 1
4448 4695 4696 1
4449 4696 4697 1
4450 4697 4698 1
4451 4698 4699 1
4452 4699 4700 1
4453 4700 4701 1
4454 4701 4702 1
4455 4702 4703 1
4456 4703 4704 1
4457 4704 4705 1
4458 4705 4706 1
4459 4706 4707 1
4460 4707 4708 1
4461 4708 4709 1
4462 4709 4710 1
4463 4710 4711 1
4464 4711 4712 1
4465 4713 4714 1
4466 4714 4715 1
4467 4715 4716 1
4468 4716 4717 1
4469 4717 4718 1
4470 4718 4719 1
4471 4719 4720 1
4472 4720 4721 1
4473 4721 4722 1
4474 4722 4723 1
4475 4723 4724 1
4476 4724 4725 1
4477 4725 4726 1
4478 4726 4727 1
4479 4727 4728 1
4480 4728 4729 1
4481 4729 4730 1
4482 4730 4731 1
4483 4732 4733 1
4484 4733 4734 1
4485 4734 4735 1
4486 4735 4736 1
4487 4736 4737 1
4488 4737 4738 1
4489 4738 4739 1
4490 4739 4740 1
4491 4740 4741 1
4492 4741 4742 1
4493 4742 4743 1
4494 4743 4744 1
4495 4744 4745 1
4496 4745 4746 1
4497 4746 4747 1
4498 4747 4748 1
4499 4748 4749 1
4500 4749 4750 1
4501 4751 4752 1
4502 4752 4753 1
4503 4753 4754 1
4504 4754 4755 1
4505 4755 4756 1
4506 4756 4757 1
4507 4757 4758 1
4508 4758 4759 1
4509 4759 4760 1
4510 4760 4761 1
4511 4761 4762 1
4512 4762 4763 1
4513 4763 4764 1
4514 4764 4765 1
4515 4765 4766 1
4516 4766 4767 1
4517 4767 4768 1
4518 4768 4769 1
4519 4770 4771 1
4520 4771 4772 1
4521 4772 4773 1
4522 4773 4774 1
4523 4774 4775 1
4524 4775 4776 1
4525 4776 4777 1
4526 4777 4778 1
4527 4778 4779 1
4528 4779 4780 1
4529 4780 4781 1
4530 4781 4782 1
4531 4782 4783 1
4532 4783 4784 1
4533 4784 4785 1
4534 4785 4786 1
4535 4786 4787 1
4536 4787 4788 1
4537 4789 4790 1
4538 4790 4791 1
4539 4791 4792 1
4540 4792 4793 1
4541 4793 4794 1
4542 4794 4795 1
4543 4795 4796 1
4544 4796 4797 1
4545 4797 4798 1
4546 4798 4799 1
4547 4799 4800 1
4548 4800 4801 1
4549 4801 4802 1
4550 4802 4803 1
4551 4803 4804 1
4552 4804 4805 1
4553 4805 4806 1
4554 4806 4807 1
4555 4808 4809 1
4556 4809 4810 1
4557 4810 4811 1
4558 4811 4812 1
4559 4812 4813 1
4560 4813 4814 1
4561 4814 4815 1
4562 4815 4816 1
4563 4816 4817 1
4564 4817 4818 1
4565 4818 4819 1
4566 4819 4820 1
4567 4820 4821 1
4568 4821 4822 1
4569 4822 4823 1
4570 4823 4824 1
4571 4824 4825 1
4572 4825 4826 1
4573 4827 4828 1
4574 4828 4829 1
4575 4829 4830 1
4576 4830 4831 1
4577 4831 4832 1
4578 4832 4833 1
4579 4833 4834 1
4580 4834 4835 1
4581 4835 4836 1
4582 4836 4837 1
4583 4837 4838 1
4584 4838 4839 1
4585 4839 4840 1
4586 4840 4841 1
4587 4841 4842 1
4588 4842 4843 1
4589 4843 4844 1
4590 4844 4845 1
4591 4846 4847 1
4592 4847 4848 1
4593 4848 4849 1
4594 4849 4850 1
4595 4850 4851 1
4596 4851 4852 1
4597 4852 4853 1
4598 4853 4854 1
4599 4854 4855 1
4600 4855 4856 1
4601 4856 4857 1
4602 4857 4858 1
4603 4858 4859 1
4604 4859 4860 1
4605 4860 4861 1
4606 4861 4862 1
4607 4862 4863 1
4608 4863 4864 1
4609 4865 4866 1
4610 4866 4867 1
4611 4867 4868 1
4612 4868 4869 1
4613 4869 4870 1
4614 4870 4871 1
4615 4871 4872 1
4616 4872 4873 1
4617 4873 4874 1
4618 4874 4875 1
4619 4875 4876 1
4620 4876 4877 1
4621 4877 4878 1
4622 4878 4879 1
4623 4879 4880 1
4624 4880 4881 1
4625 4881 4882 1
4626 4882 4883 1
4627 4884 4885 1
4628 4885 4886 1
4629 4886 4887 1
4630 4887 4888 1
4631 4888 4889 1
4632 4889 4890 1
4633 4890 4891 1
4634 4891 4892 1
4635 4892 4893 1
4636 4893 4894 1
4637 4894 4895 1
4638 4895 4896 1
4639 4896 4897 1
4640 4897 4898 1
4641 4898 4899 1
4642 4899 4900 1
4643 4900 4901 1
4644 4901 4902 1
4645 4903 4904 1
4646 4904 4905 1
4647 4905 4906 1
4648 4906 4907 1
4649 4907 4908 1
4650 4908 4909 1
4651 4909 4910 1
4652 4910 4911 1
4653 4911 4912 1
4654 4912 4913 1
4655 4913 4914 1
4656 4914 4915 1
4657 4915 4916 1
4658 4916 4917 1
4659 4917 4918 1
4660 4918 4919 1
4661 4919 4920 1
4662 4920 4921 1
4663 4922 4923 1
4664 4923 4924 1
4665 4924 4925 1
4666 4925 4926 1
4667 4926 4927 1
4668 4927 4928 1
4669 4928 4929 1
4670 4929 4930 1
4671 4930 4931 1
4672 4931 4932 1
4673 4932 4933 1
4674 4933 4934 1
4675 4934 4935 1
4676 4935 4936 1
4677 4936 4937 1
4678 4937 4938 1
4679 4938 4939 1
4680 4939 4940 1
4681 4941 4942 1
4682 4942 4943 1
4683 4943 4944 1
4684 4944 4945 1
4685 4945 4946 1
4686 4946 4947 1
4687 4947 4948 1
4688 4948 4949 1
4689 4949 4950 1
4690 4950 4951 1
4691 4951 4952 1
4692 4952 4953 1
4693 4953 4954 1
4694 4954 4955 1
4695 4955 4956 1
4696 4956 4957 1
4697 4957 4958 1
4698 4958 4959 1
4699 4960 4961 1
4700 4961 4962 1
4701 4962 4963 1
4702 4963 4964 1
4703 4964 4965 1
4704 4965 4966 1
4705 4966 4967 1
4706 4967 4968 1
4707 4968 4969 1
4708 4969 4970 1
4709 4970 4971 1
4710 4971 4972 1
4711 4972 4973 1
4712 4973 4974 1
4713 4974 4975 1
4714 4975 4976 1
4715 4976 4977 1
4716 4977 4978 1
4717 4979 4980 1
4718 4980 4981 1
4719 4981 4982 1
4720 4982 4983 1
4721 4983 4984 1
4722 4984 4985 1
4723 4985 4986 1
4724 4986 4987 1
4725 4987 4988 1
4726 4988 4989 1
4727 4989 4990 1
4728 4990 4991 1
4729 4991 4992 1
4730 4992 4993 1
4731 4993 4994 1
4732 4994 4995 1
4733 4995 4996 1
4734 4996 4997 1
4735 4998 4999 1
4736 4999 5000 1
4737 5000 5001 1
4738 5001 5002 1
4739 5002 5003 1
4740 5003 5004 1
4741 5004 5005 1
4742 5005 5006 1
4743 5006 5007 1
4744 5007 5008 1
4745 5008 5009 1
4746 5009 5010 1
4747 5010 5011 1
4748 5011 5012 1
4749 5012 5013 1
4750 5013 5014 1
4751 5014 5015 1
4752 5015 5016 1
4753 5017 5018 1
4754 5018 5019 1
4755 5019 5020 1
4756 5020 5021 1
4757 5021 5022 1
4758 5022 5023 1
4759 5023 5024 1
4760 5024 5025 1
4761 5025 5026 1
4762 5026 5027 1
4763 5027 5028 1
4764 5028 5029 1
4765 5029 5030 1
4766 5030 5031 1
4767 5031 5032 1
4768 5032 5033 1
4769 5033 5034 1
4770 5034 5035 1
4771 5036 5037 1
4772 5037 5038 1
4773 5038 5039 1
4774 5039 5040 1
4775 5040 5041 1
4776 5041 5042 1
4777 5042 5043 1
4778 5043 5044 1
4779 5044 5045 1
4780 5045 5046 1
4781 5046 5047 1
4782 5047 5048 1
4783 5048 5049 1
4784 5049 5050 1
4785 5050 5051 1
4786 5051 5052 1
4787 5052 5053 1
4788 5053 5054 1
4789 5055 5056 1
4790 5056 5057 1
4791 5057 5058 1
4792 5058 5059 1
4793 5059 5060 1
4794 5060 5061 1
4795 5061 5062 1
4796 5062 5063 1
4797 5063 5064 1
4798 5064 5065 1
4799 5065 5066 1
4800 5066 5067 1
4801 5067 5068 1
4802 5068 5069 1
4803 5069 5070 1
4804 5070 5071 1
4805 5071 5072 1
4806 5072 5073 1
4807 5074 5075 1
4808 5075 5076 1
4809 5076 5077 1
4810 5077 5078 1
4811 5078 5079 1
4812 5079 5080 1
4813 5080 5081 1
4814 5081 5082 1
4815 5082 5083 1
4816 5083 5084 1
4817 5084 5085 1
4818 5085 5086 1
4819 5086 5087 1
4820 5087 5088 1
4821 5088 5089 1
4822 5089 5090 1
4823 5090 5091 1
4824 5091 5092 1
4825 5093 5094 1
4826 5094 5095 1
4827 5095 5096 1
4828 5096 5097 1
4829 5097 5098 1
4830 5098 5099 1
4831 5099 5100 1
4832 5100 5101 1
4833 5101 5102 1
4834 5102 5103 1
4835 5103 5104 1
4836 5104 5105 1
4837 5105 5106 1
4838 5106 5107 1
4839 5107 5108 1
4840 5108 5109 1
4841 5109 5110 1
4842 5110 5111 1
4843 5112 5113 1
4844 5113 5114 1
4845 5114 5115 1
4846 5115 5116 1
4847 5116 5117 1
4848 5117 5118 1
4849 5118 5119 1
4850 5119 5120 1
4851 5120 5121 1
4852 5121 5122 1
4853 5122 5123 1
4854 5123 5124 1
4855 5124 5125 1
4856 5125 5126 1
4857 5126 5127 1
4858 5127 5128 1
4859 5128 5129 1
4860 5129 5130 1
4861 5131 5132 1
4862 5132 5133 1
4863 5133 5134 1
4864 5134 5135 1
4865 5135 5136 1
4866 5136 5137 1
4867 5137 5138 1
4868 5138 5139 1
4869 5139 5140 1
4870 5140 5141 1
4871 5141 5142 1
4872 5142 5143 1
4873 5143 5144 1
4874 5144 5145 1
4875 5145 5146 1
4876 5146 5147 1
4877 5147 5148 1
4878 5148 5149 1
4879 5150 5151 1
4880 5151 5152 1
4881 5152 5153 1
4882 5153 5154 1
4883 5154 5155 1
4884 5155 5156 1
4885 5156 5157 1
4886 5157 5158 1
4887 5158 5159 1
4888 5159 5160 1
4889 5160 5161 1
4890 5161 5162 1
4891 5162 5163 1
4892 5163 5164 1
4893 5164 5165 1
4894 5165 5166 1
4895 5166 5167 1
4896 5167 5168 1
4897 5169 5170 1
4898 5170 5171 1
4899 5171 5172 1
4900 5172 5173 1
4901 5173 5174 1
4902 5174 5175 1
4903 5175 5176 1
4904 5176 5177 1
4905 5177 5178 1
4906 5178 5179 1
4907 5179 5180 1
4908 5180 5181 1
4909 5181 5182 1
4910 5182 5183 1
4911 5183 5184 1
4912 5184 5185 1
4913 5185 5186 1
4914 5186 5187 1
4915 5188 5189 1
4916 5189 5190 1
4917 5190 5191 1
4918 5191 5192 1
4919 5192 5193 1
4920 5193 5194 1
4921 5194 5195 1
4922 5195 5196 1
4923 5196 5197 1
4924 5197 5198 1
4925 5198 5199 1
4926 5199 5200 1
4927 5200 5201 1
4928 5201 5202 1
4929 5202 5203 1
4930 5203 5204 1
4931 5204 5205 1
4932 5205 5206 1
4933 5207 5208 1
4934 5208 5209 1
4935 5209 5210 1
4936 5210 5211 1
4937 5211 5212 1
4938 5212 5213 1
4939 5213 5214 1
4940 5214 5215 1
4941 5215 5216 1
4942 5216 5217 1
4943 5217 5218 1
4944 5218 5219 1
4945 5219 5220 1
4946 5220 5221 1
4947 5221 5222 1
4948 5222 5223 1
4949 5223 5224 1
4950 5224 5225 1
4951 5226 5227 1
4952 5227 5228 1
4953 5228 5229 1
4954 5229 5230 1
4955 5230 5231 1
4956 5231 5232 1
4957 5232 5233 1
4958 5233 5234 1
4959 5234 5235 1
4960 5235 5236 1
4961 5236 5237 1
4962 5237 5238 1
4963 5238 5239 1
4964 5239 5240 1
4965 5240 5241 1
4966 5241 5242 1
4967 5242 5243 1
4968 5243 5244 1
4969 5245 5246 1
4970 5246 5247 1
4971 5247 5248 1
4972 5248 5249 1
4973 5249 5250 1
4974 5250 5251 1
4975 5251 5252 1
4976 5252 5253 1
4977 5253 5254 1
4978 5254 5255 1
4979 5255 5256 1
4980 5256 5257 1
4981 5257 5258 1
4982 5258 5259 1
4983 5259 5260 1
4984 5260 5261 1
4985 5261 5262 1
4986 5262 5263 1
4987 5264 5265 1
4988 5265 5266 1
4989 5266 5267 1
4990 5267 5268 1
4991 5268 5269 1
4992 5269 5270 1
4993 5270 5271 1
4994 5271 5272 1
4995 5272 5273 1
4996 5273 5274 1
4997 5274 5275 1
4998 5275 5276 1
4999 5276 5277 1
5000 5277 5278 1
5001 5278 5279 1
5002 5279 5280 1
5003 5280 5281 1
5004 5281 5282 1
5005 5283 5284 1
5006 5284 5285 1
5007 5285 5286 1
5008 5286 5287 1
5009 5287 5288 1
5010 5288 5289 1
5011 5289 5290 1
5012 5290 5291 1
5013 5291 5292 1
5014 5292 5293 1
5015 5293 5294 1
5016 5294 5295 1
5017 5295 5296 1
5018 5296 5297 1
5019 5297 5298 1
5020 5298 5299 1
5021 5299 5300 1
5022 5300 5301 1
5023 5302 5303 1
5024 5303 5304 1
5025 5304 5305 1
5026 5305 5306 1
5027 5306 5307 1
5028 5307 5308 1
5029 5308 5309 1
5030 5309 5310 1
5031 5310 5311 1
5032 5311 5312 1
5033 5312 5313 1
5034 5313 5314 1
5035 5314 5315 1
5036 5315 5316 1
5037 5316 5317 1
5038 5317 5318 1
5039 5318 5319 1
5040 5319 5320 1
5041 5321 5322 1
5042 5322 5323 1
5043 5323 5324 1
5044 5324 5325 1
5045 5325 5326 1
5046 5326 5327 1
5047 5327 5328 1
5048 5328 5329 1
5049 5329 5330 1
5050 5330 5331 1
5051 5331 5332 1
5052 5332 5333 1
5053 5333 5334 1
5054 5334 5335 1
5055 5335 5336 1
5056 5336 5337 1
5057 5337 5338 1
5058 5338 5339 1
5059 5340 5341 1
5060 5341 5342 1
5061 5342 5343 1
5062 5343 5344 1
5063 5344 5345 1
5064 5345 5346 1
5065 5346 5347 1
5066 5347 5348 1
5067 5348 5349 1
5068 5349 5350 1
5069 5350 5351 1
5070 5351 5352 1
5071 5352 5353 1
5072 5353 5354 1
5073 5354 5355 1
5074 5355 5356 1
5075 5356 5357 1
5076 5357 5358 1
5077 5359 5360 1
5078 5360 5361 1
5079 5361 5362 1
5080 5362 5363 1
5081 5363 5364 1
5082 5364 5365 1
5083 5365 5366 1
5084 5366 5367 1
5085 5367 5368 1
5086 5368 5369 1
5087 5369 5370 1
5088 5370 5371 1
5089 5371 5372 1
5090 5372 5373 1
5091 5373 5374 1
5092 5374 5375 1
5093 5375 5376 1
5094 5376 5377 1
5095 5378 5379 1
5096 5379 5380 1
5097 5380 5381 1
5098 5381 5382 1
5099 5382 5383 1
5100 5383 5384 1
5101 5384 5385 1
5102 5385 5386 1
5103 5386 5387 1
5104 5387 5388 1
5105 5388 5389 1
5106 5389 5390 1
5107 5390 5391 1
5108 5391 5392 1
5109 5392 5393 1
5110 5393 5394 1
5111 5394 5395 1
5112 5395 5396 1
5113 5397 5398 1
5114 5398 5399 1
5115 5399 5400 1
5116 5400 5401 1
5117 5401 5402 1
5118 5402 5403 1
5119 5403 5404 1
5120 5404 5405 1
5121 5405 5406 1
5122 5406 5407 1
5123 5407 5408 1
5124 5408 5409 1
5125 5409 5410 1
5126 5410 5411 1
5127 5411 5412 1
5128 5412 5413 1
5129 5413 5414 1
5130 5414 5415 1
5131 5416 5417 1
5132 5417 5418 1
5133 5418 5419 1
5134 5419 5420 1
5135 5420 5421 1
5136 5421 5422 1
5137 5422 5423 1
5138 5423 5424 1
5139 5424 5425 1
5140 5425 5426 1
5141 5426 5427 1
5142 5427 5428 1
5143 5428 5429 1
5144 5429 5430 1
5145 5430 5431 1
5146 5431 5432 1
5147 5432 5433 1
5148 5433 5434 1
5149 5435 5436 1
5150 5436 5437 1
5151 5437 5438 1
5152 5438 5439 1
5153 5439 5440 1
5154 5440 5441 1
5155 5441 5442 1
5156 5442 5443 1
5157 5443 5444 1
5158 5444 5445 1
5159 5445 5446 1
5160 5446 5447 1
5161 5447 5448 1
5162 5448 5449 1
5163 5449 5450 1
5164 5450 5451 1
5165 5451 5452 1
5166 5452 5453 1
5167 5454 5455 1
5168 5455 5456 1
5169 5456 5457 1
5170 5457 5458 1
5171 5458 5459 1
5172 5459 5460 1
5173 5460 5461 1
5174 5461 5462 1
5175 5462 5463 1
5176 5463 5464 1
5177 5464 5465 1
5178 5465 5466 1
5179 5466 5467 1
5180 5467 5468 1
5181 5468 5469 1
5182 5469 5470 1
5183 5470 5471 1
5184 5471 5472 1
5185 5473 5474 1
5186 5474 5475 1
5187 5475 5476 1
5188 5476 5477 1
5189 5477 5478 1
5190 5478 5479 1
5191 5479 5480 1
5192 5480 5481 1
5193 5481 5482 1
5194 5482 5483 1
5195 5483 5484 1
5196 5484 5485 1
5197 5485 5486 1
5198 5486 5487 1
5199 5487 5488 1
5200 5488 5489 1
5201 5489 5490 1
5202 5490 5491 1
5203 5492 5493 1
5204 5493 5494 1
5205 5494 5495 1
5206 5495 5496 1
5207 5496 5497 1
5208 5497 5498 1
5209 5498 5499 1
5210 5499 5500 1
5211 5500 5501 1
5212 5501 5502 1
5213 5502 5503 1
5214 5503 5504 1
5215 5504 5505 1
5216 5505 5506 1
5217 5506 5507 1
5218 5507 5508 1
5219 5508 5509 1
5220 5509 5510 1
5221 5511 5512 1
5222 5512 5513 1
5223 5513 5514 1
5224 5514 5515 1
5225 5515 5516 1
5226 5516 5517 1
5227 5517 5518 1
5228 5518 5519 1
5229 5519 5520 1
5230 5520 5521 1
5231 5521 5522 1
5232 5522 5523 1
5233 5523 5524 1
5234 5524 5525 1
5235 5525 5526 1
5236 5526 5527 1
5237 5527 5528 1
5238 5528 5529 1
5239 5530 5531 1
5240 5531 5532 1
5241 5532 5533 1
5242 5533 5534 1
5243 5534 5535 1
5244 5535 5536 1
5245 5536 5537 1
5246 5537 5538 1
5247 5538 5539 1
5248 5539 5540 1
5249 5540 5541 1
5250 5541 5542 1
5251 5542 5543 1
5252 5543 5544 1
5253 5544 5545 1
5254 5545 5546 1
5255 5546 5547 1
5256 5547 5548 1
5257 5549 5550 1
5258 5550 5551 1
5259 5551 5552 1
5260 5552 5553 1
5261 5553 5554 1
5262 5554 5555 1
5263 5555 5556 1
5264 5556 5557 1
5265 5557 5558 1
5266 5558 5559 1
5267 5559 5560 1
5268 5560 5561 1
5269 5561 5562 1
5270 5562 5563 1
5271 5563 5564 1
5272 5564 5565 1
5273 5565 5566 1
5274 5566 5567 1
5275 5568 5569 1
5276 5569 5570 1
5277 5570 5571 1
5278 5571 5572 1
5279 5572 5573 1
5280 5573 5574 1
5281 5574 5575 1
5282 5575 5576 1
5283 5576 5577 1
5284 5577 5578 1
5285 5578 5579 1
5286 5579 5580 1
5287 5580 5581 1
5288 5581 5582 1
5289 5582 5583 1
5290 5583 5584 1
5291 5584 5585 1
5292 5585 5586 1
5293 5587 5588 1
5294 5588 5589 1
5295 5589 5590 1
5296 5590 5591 1
5297 5591 5592 1
5298 5592 5593 1
5299 5593 5594 1
5300 5594 5595 1
5301 5595 5596 1
5302 5596 5597 1
5303 5597 5598 1
5304 5598 5599 1
5305 5599 5600 1
5306 5600 5601 1
5307 5601 5602 1
5308 5602 5603 1
5309 5603 5604 1
5310 5604 5605 1
5311 5606 5607 1
5312 5607 5608 1
5313 5608 5609 1
5314 5609 5610 1
5315 5610 5611 1
5316 5611 5612 1
5317 5612 5613 1
5318 5613 5614 1
5319 5614 5615 1
5320 5615 5616 1
5321 5616 5617 1
5322 5617 5618 1
5323 5618 5619 1
5324 5619 5620 1
5325 5620 5621 1
5326 5621 5622 1
5327 5622 5623 1
5328 5623 5624 1
5329 5625 5626 1
5330 5626 5627 1
5331 5627 5628 1
5332 5628 5629 1
5333 5629 5630 1
5334 5630 5631 1
5335 5631 5632 1
5336 5632 5633 1
5337 5633 5634 1
5338 5634 5635 1
5339 5635 5636 1
5340 5636 5637 1
5341 5637 5638 1
5342 5638 5639 1
5343 5639 5640 1
5344 5640 5641 1
5345 5641 5642 1
5346 5642 5643 1
5347 5644 5645 1
5348 5645 5646 1
5349 5646 5647 1
5350 5647 5648 1
5351 5648 5649 1
5352 5649 5650 1
5353 5650 5651 1
5354 5651 5652 1
5355 5652 5653 1
5356 5653 5654 1
5357 5654 5655 1
5358 5655 5656 1
5359 5656 5657 1
5360 5657 5658 1
5361 5658 5659 1
5362 5659 5660 1
5363 5660 5661 1
5364 5661 5662 1
5365 5663 5664 1
5366 5664 5665 1
5367 5665 5666 1
5368 5666 5667 1
5369 5667 5668 1
5370 5668 5669 1
5371 5669 5670 1
5372 5670 5671 1
5373 5671 5672 1
5374 5672 5673 1
5375 5673 5674 1
5376 5674 5675 1
5377 5675 5676 1
5378 5676 5677 1
5379 5677 5678 1
5380 5678 5679 1
5381 5679 5680 1
5382 5680 5681 1
5383 5682 5683 1
5384 5683 5684 1
5385 5684 5685 1
5386 5685 5686 1
5387 5686 5687 1
5388 5687 5688 1
5389 5688 5689 1
5390 5689 5690 1
5391 5690 5691 1
5392 5691 5692 1
5393 5692 5693 1
5394 5693 5694 1
5395 5694 5695 1
5396 5695 5696 1
5397 5696 5697 1
5398 5697 5698 1
5399 5698 5699 1
5400 5699 5700 1
5401 5701 5702 1
5402 5702 5703 1
5403 5703 5704 1
5404 5704 5705 1
5405 5705 5706 1
5406 5706 5707 1
5407 5707 5708 1
5408 5708 5709 1
5409 5709 5710 1
5410 5710 5711 1
5411 5711 5712 1
5412 5712 5713 1
5413 5713 5714 1
5414 5714 5715 1
5415 5715 5716 1
5416 5716 5717 1
5417 5717 5718 1
5418 5718 5719 1
5419 5720 5721 1
5420 5721 5722 1
5421 5722 5723 1
5422 5723 5724 1
5423 5724 5725 1
5424 5725 5726 1
5425 5726 5727 1
5426 5727 5728 1
5427 5728 5729 1
5428 5729 5730 1
5429 5730 5731 1
5430 5731 5732 1
5431 5732 5733 1
5432 5733 5734 1
5433 5734 5735 1
5434 5735 5736 1
5435 5736 5737 1
5436 5737 5738 1
5437 5739 5740 1
5438 5740 5741 1
5439 5741 5742 1
5440 5742 5743 1
5441 5743 5744 1
5442 5744 5745 1
5443 5745 5746 1
5444 5746 5747 1
5445 5747 5748 1
5446 5748 5749 1
5447 5749 5750 1
5448 5750 5751 1
5449 5751 5752 1
5450 5752 5753 1
5451 5753 5754 1
5452 5754 5755 1
5453 5755 5756 1
5454 5756 5757 1
5455 5758 5759 1
5456 5759 5760 1
5457 5760 5761 1
5458 5761 5762 1
5459 5762 5763 1
5460 5763 5764 1
5461 5764 5765 1
5462 5765 5766 1
5463 5766 5767 1
5464 5767 5768 1
5465 5768 5769 1
5466 5769 5770 1
5467 5770 5771 1
5468 5771 5772 1
5469 5772 5773 1
5470 5773 5774 1
5471 5774 5775 1
5472 5775 5776 1
5473 5777 5778 1
5474 5778 5779 1
5475 5779 5780 1
5476 5780 5781 1
5477 5781 5782 1
5478 5782 5783 1
5479 5783 5784 1
5480 5784 5785 1
5481 5785 5786 1
5482 5786 5787 1
5483 5787 5788 1
5484 5788 5789 1
5485 5789 5790 1
5486 5790 5791 1
5487 5791 5792 1
5488 5792 5793 1
5489 5793 5794 1
5490 5794 5795 1
5491 5796 5797 1
5492 5797 5798 1
5493 5798 5799 1
5494 5799 5800 1
5495 5800 5801 1
5496 5801 5802 1
5497 5802 5803 1
5498 5803 5804 1
5499 5804 5805 1
5500 5805 5806 1
5501 5806 5807 1
5502 5807 5808 1
5503 5808 5809 1
5504 5809 5810 1
5505 5810 5811 1
5506 5811 5812 1
5507 5812 5813 1
5508 5813 5814 1
5509 5815 5816 1
5510 5816 5817 1
5511 5817 5818 1
5512 5818 5819 1
5513 5819 5820 1
5514 5820 5821 1
5515 5821 5822 1
5516 5822 5823 1
5517 5823 5824 1
5518 5824 5825 1
5519 5825 5826 1
5520 5826 5827 1
5521 5827 5828 1
5522 5828 5829 1
5523 5829 5830 1
5524 5830 5831 1
5525 5831 5832 1
5526 5832 5833 1
5527 5834 5835 1
5528 5835 5836 1
5529 5836 5837 1
5530 5837 5838 1
5531 5838 5839 1
5532 5839 5840 1
5533 5840 5841 1
5534 5841 5842 1
5535 5842 5843 1
5536 5843 5844 1
5537 5844 5845 1
5538 5845 5846 1
5539 5846 5847 1
5540 5847 5848 1
5541 5848 5849 1
5542 5849 5850 1
5543 5850 5851 1
5544 5851 5852 1
5545 5853 5854 1
5546 5854 5855 1
5547 5855 5856 1
5548 5856 5857 1
5549 5857 5858 1
5550 5858 5859 1
5551 5859 5860 1
5552 5860 5861 1
5553 5861 5862 1
5554 5862 5863 1
5555 5863 5864 1
5556 5864 5865 1
5557 5865 5866 1
5558 5866 5867 1
5559 5867 5868 1
5560 5868 5869 1
5561 5869 5870 1
5562 5870 5871 1
5563 5872 5873 1
5564 5873 5874 1
5565 5874 5875 1
5566 5875 5876 1
5567 5876 5877 1
5568 5877 5878 1
5569 5878 5879 1
5570 5879 5880 1
5571 5880 5881 1
5572 5881 5882 1
5573 5882 5883 1
5574 5883 5884 1
5575 5884 5885 1
5576 5885 5886 1
5577 5886 5887 1
5578 5887 5888 1
5579 5888 5889 1
5580 5889 5890 1
5581 5891 5892 1
5582 5892 5893 1
5583 5893 5894 1
5584 5894 5895 1
5585 5895 5896 1
5586 5896 5897 1
5587 5897 5898 1
5588 5898 5899 1
5589 5899 5900 1
5590 5900 5901 1
5591 5901 5902 1
5592 5902 5903 1
5593 5903 5904 1
5594 5904 5905 1
5595 5905 5906 1
5596 5906 5907 1
5597 5907 5908 1
5598 5908 5909 1
5599 5910 5911 1
5600 5911 5912 1
5601 5912 5913 1
5602 5913 5914 1
5603 5914 5915 1
5604 5915 5916 1
5605 5916 5917 1
5606 5917 5918 1
5607 5918 5919 1
5608 5919 5920 1
5609 5920 5921 1
5610 5921 5922 1
5611 5922 5923 1
5612 5923 5924 1
5613 5924 5925 1
5614 5925 5926 1
5615 5926 5927 1
5616 5927 5928 1
5617 5929 5930 1
5618 5930 5931 1
5619 5931 5932 1
5620 5932 5933 1
5621 5933 5934 1
5622 5934 5935 1
5623 5935 5936 1
5624 5936 5937 1
5625 5937 5938 1
5626 5938 5939 1
5627 5939 5940 1
5628 5940 5941 1
5629 5941 5942 1
5630 5942 5943 1
5631 5943 5944 1
5632 5944 5945 1
5633 5945 5946 1
5634 5946 5947 1
5635 5948 5949 1
5636 5949 5950 1
5637 5950 5951 1
5638 5951 5952 1
5639 5952 5953 1
5640 5953 5954 1
5641 5954 5955 1
5642 5955 5956 1
5643 5956 5957 1
5644 5957 5958 1
5645 5958 5959 1
5646 5959 5960 1
5647 5960 5961 1
5648 5961 5962 1
5649 5962 5963 1
5650 5963 5964 1
5651 5964 5965 1
5652 5965 5966 1
5653 5967 5968 1
5654 5968 5969 1
5655 5969 5970 1
5656 5970 5971 1
5657 5971 5972 1
5658 5972 5973 1
5659 5973 5974 1
5660 5974 5975 1
5661 5975 5976 1
5662 5976 5977 1
5663 5977 5978 1
5664 5978 5979 1
5665 5979 5980 1
5666 5980 5981 1
5667 5981 5982 1
5668 5982 5983 1
5669 5983 5984 1
5670 5984 5985 1
5671 5986 5987 1
5672 5987 5988 1
5673 5988 5989 1
5674 5989 5990 1
5675 5990 5991 1
5676 5991 5992 1
5677 5992 5993 1
5678 5993 5994 1
5679 5994 5995 1
5680 5995 5996 1
5681 5996 5997 1
5682 5997 5998 1
5683 5998 5999 1
5684 5999 6000 1
5685 6000 6001 1
5686 6001 6002 1
5687 6002 6003 1
5688 6003 6004 1
5689 6005 6006 1
5690 6006 6007 1
5691 6007 6008 1
5692 6008 6009 1
5693 6009 6010 1
5694 6010 6011 1
5695 6011 6012 1
5696 6012 6013 1
5697 6013 6014 1
5698 6014 6015 1
5699 6015 6016 1
5700 6016 6017 1
5701 6017 6018 1
5702 6018 6019 1
5703 6019 6020 1
5704 6020 6021 1
5705 6021 6022 1
5706 6022 6023 1
5707 6024 6025 1
5708 6025 6026 1
5709 6026 6027 1
5710 6027 6028 1
5711 6028 6029 1
5712 6029 6030 1
5713 6030 6031 1
5714 6031 6032 1
5715 6032 6033 1
5716 6033 6034 1
5717 6034 6035 1
5718 6035 6036 1
5719 6036 6037 1
5720 6037 6038 1
5721 6038 6039 1
5722 6039 6040 1
5723 6040 6041 1
5724 6041 6042 1
5725 6043 6044 1
5726 6044 6045 1
5727 6045 6046 1
5728 6046 6047 1
5729 6047 6048 1
5730 6048 6049 1
5731 6049 6050 1
5732 6050 6051 1
5733 6051 6052 1
5734 6052 6053 1
5735 6053 6054 1
5736 6054 6055 1
5737 6055 6056 1
5738 6056 6057 1
5739 6057 6058 1
5740 6058 6059 1
5741 6059 6060 1
5742 6060 6061 1
5743 6062 6063 1
5744 6063 6064 1
5745 6064 6065 1
5746 6065 6066 1
5747 6066 6067 1
5748 6067 6068 1
5749 6068 6069 1
5750 6069 6070 1
5751 6070 6071 1
5752 6071 6072 1
5753 6072 6073 1
5754 6073 6074 1
5755 6074 6075 1
5756 6075 6076 1
5757 6076 6077 1
5758 6077 6078 1
5759 6078 6079 1
5760 6079 6080 1
5761 6081 6082 1
5762 6082 6083 1
5763 6083 6084 1
5764 6084 6085 1
5765 6085 6086 1
5766 6086 6087 1
5767 6087 6088 1
5768 6088 6089 1
5769 6089 6090 1
5770 6090 6091 1
5771 6091 6092 1
5772 6092 6093 1
5773 6093 6094 1
5774 6094 6095 1
5775 6095 6096 1
5776 6096 6097 1
5777 6097 6098 1
5778 6098 6099 1
5779 6100 6101 1
5780 6101 6102 1
5781 6102 6103 1
5782 6103 6104 1
5783 6104 6105 1
5784 6105 6106 1
5785 6106 6107 1
5786 6107 6108 1
5787 6108 6109 1
5788 6109 6110 1
5789 6110 6111 1
5790 6111 6112 1
5791 6112 6113 1
5792 6113 6114 1
5793 6114 6115 1
5794 6115 6116 1
5795 6116 6117 1
5796 6117 6118 1
5797 6119 6120 1
5798 6120 6121 1
5799 6121 6122 1
5800 6122 6123 1
5801 6123 6124 1
5802 6124 6125 1
5803 6125 6126 1
5804 6126 6127 1
5805 6127 6128 1
5806 6128 6129 1
5807 6129 6130 1
5808 6130 6131 1
5809 6131 6132 1
5810 6132 6133 1
5811 6133 6134 1
5812 6134 6135 1
5813 6135 6136 1
5814 6136 6137 1
5815 6138 6139 1
5816 6139 6140 1
5817 6140 6141 1
5818 6141 6142 1
5819 6142 6143 1
5820 6143 6144 1
5821 6144 6145 1
5822 6145 6146 1
5823 6146 6147 1
5824 6147 6148 1
5825 6148 6149 1
5826 6149 6150 1
5827 6150 6151 1
5828 6151 6152 1
5829 6152 6153 1
5830 6153 6154 1
5831 6154 6155 1
5832 6155 6156 1
5833 6157 6158 1
5834 6158 6159 1
5835 6159 6160 1
5836 6160 6161 1
5837 6161 6162 1
5838 6162 6163 1
5839 6163 6164 1
5840 6164 6165 1
5841 6165 6166 1
5842 6166 6167 1
5843 6167 6168 1
5844 6168 6169 1
5845 6169 6170 1
5846 6170 6171 1
5847 6171 6172 1
5848 6172 6173 1
5849 6173 6174 1
5850 6174 6175 1
5851 6176 6177 1
5852 6177 6178 1
5853 6178 6179 1
5854 6179 6180 1
5855 6180 6181 1
5856 6181 6182 1
5857 6182 6183 1
5858 6183 6184 1
5859 6184 6185 1
5860 6185 6186 1
5861 6186 6187 1
5862 6187 6188 1
5863 6188 6189 1
5864 6189 6190 1
5865 6190 6191 1
5866 6191 6192 1
5867 6192 6193 1
5868 6193 6194 1
5869 6195 6196 1
5870 6196 6197 1
5871 6197 6198 1
5872 6198 6199 1
5873 6199 6200 1
5874 6200 6201 1
5875 6201 6202 1
5876 6202 6203 1
5877 6203 6204 1
5878 6204 6205 1
5879 6205 6206 1
5880 6206 6207 1
5881 6207 6208 1
5882 6208 6209 1
5883 6209 6210 1
5884 6210 6211 1
5885 6211 6212 1
5886 6212 6213 1
5887 6214 6215 1
5888 6215 6216 1
5889 6216 6217 1
5890 6217 6218 1
5891 6218 6219 1
5892 6219 6220 1
5893 6220 6221 1
5894 6221 6222 1
5895 6222 6223 1
5896 6223 6224 1
5897 6224 6225 1
5898 6225 6226 1
5899 6226 6227 1
5900 6227 6228 1
5901 6228 6229 1
5902 6229 6230 1
5903 6230 6231 1
5904 6231 6232 1
5905 6233 6234 1
5906 6234 6235 1
5907 6235 6236 1
5908 6236 6237 1
5909 6237 6238 1
5910 6238 6239 1
5911 6239 6240 1
5912 6240 6241 1
5913 6241 6242 1
5914 6242 6243 1
5915 6243 6244 1
5916 6244 6245 1
5917 6245 6246 1
5918 6246 6247 1
5919 6247 6248 1
5920 6248 6249 1
5921 6249 6250 1
5922 6250 6251 1
5923 6252 6253 1
5924 6253 6254 1
5925 6254 6255 1
5926 6255 6256 1
5927 6256 6257 1
5928 6257 6258 1
5929 6258 6259 1
5930 6259 6260 1
5931 6260 6261 1
5932 6261 6262 1
5933 6262 6263 1
5934 6263 6264 1
5935 6264 6265 1
5936 6265 6266 1
5937 6266 6267 1
5938 6267 6268 1
5939 6268 6269 1
5940 6269 6270 1
5941 6271 6272 1
5942 6272 6273 1
5943 6273 6274 1
5944 6274 6275 1
5945 6275 6276 1
5946 6276 6277 1
5947 6277 6278 1
5948 6278 6279 1
5949 6279 6280 1
5950 6280 6281 1
5951 6281 6282 1
5952 6282 6283 1
5953 6283 6284 1
5954 6284 6285 1
5955 6285 6286 1
5956 6286 6287 1
5957 6287 6288 1
5958 6288 6289 1
5959 6290 6291 1
5960 6291 6292 1
5961 6292 6293 1
5962 6293 6294 1
5963 6294 6295 1
5964 6295 6296 1
5965 6296 6297 1
5966 6297 6298 1
5967 6298 6299 1
5968 6299 6300 1
5969 6300 6301 1
5970 6301 6302 1
5971 6302 6303 1
5972 6303 6304 1
5973 6304 6305 1
5974 6305 6306 1
5975 6306 6307 1
5976 6307 6308 1
5977 6309 6310 1
5978 6310 6311 1
5979 6311 6312 1
5980 6312 6313 1
5981 6313 6314 1
5982 6314 6315 1
5983 6315 6316 1
5984 6316 6317 1
5985 6317 6318 1
5986 6318 6319 1
5987 6319 6320 1
5988 6320 6321 1
5989 6321 6322 1
5990 6322 6323 1
5991 6323 6324 1
5992 6324 6325 1
5993 6325 6326 1
5994 6326 6327 1
5995 6328 6329 1
5996 6329 6330 1
5997 6330 6331 1
5998 6331 6332 1
5999 6332 6333 1
6000 6333 6334 1
6001 6334 6335 1
6002 6335 6336 1
6003 6336 6337 1
6004 6337 6338 1
6005 6338 6339 1
6006 6339 6340 1
6007 6340 6341 1
6008 6341 6342 1
6009 6342 6343 1
6010 6343 6344 1
6011 6344 6345 1
6012 6345 6346 1
6013 6347 6348 1
6014 6348 6349 1
6015 6349 6350 1
6016 6350 6351 1
6017 6351 6352 1
6018 6352 6353 1
6019 6353 6354 1
6020 6354 6355 1
6021 6355 6356 1
6022 6356 6357 1
6023 6357 6358 1
6024 6358 6359 1
6025 6359 6360 1
6026 6360 6361 1
6027 6361 6362 1
6028 6362 6363 1
6029 6363 6364 1
6030 6364 6365 1
6031 6366 6367 1
6032 6367 6368 1
6033 6368 6369 1
6034 6369 6370 1
6035 6370 6371 1
6036 6371 6372 1
6037 6372 6373 1
6038 6373 6374 1
6039 6374 6375 1
6040 6375 6376 1
6041 6376 6377 1
6042 6377 6378 1
6043 6378 6379 1
6044 6379 6380 1
6045 6380 6381 1
6046 6381 6382 1
6047 6382 6383 1
6048 6383 6384 1
6049 6385 6386 1
6050 6386 6387 1
6051 6387 6388 1
6052 6388 6389 1
6053 6389 6390 1
6054 6390 6391 1
6055 6391 6392 1
6056 6392 6393 1
6057 6393 6394 1
6058 6394 6395 1
6059 6395 6396 1
6060 6396 6397 1
6061 6397 6398 1
6062 6398 6399 1
6063 6399 6400 1
6064 6400 6401 1
6065 6401 6402 1
6066 6402 6403 1
6067 6404 6405 1
6068 6405 6406 1
6069 6406 6407 1
6070 6407 6408 1
6071 6408 6409 1
6072 6409 6410 1
6073 6410 6411 1
6074 6411 6412 1
6075 6412 6413 1
6076 6413 6414 1
6077 6414 6415 1
6078 6415 6416 1
6079 6416 6417 1
6080 6417 6418 1
6081 6418 6419 1
6082 6419 6420 1
6083 6420 6421 1
6084 6421 6422 1
6085 6423 6424 1
6086 6424 6425 1
6087 6425 6426 1
6088 6426 6427 1
6089 6427 6428 1
6090 6428 6429 1
6091 6429 6430 1
6092 6430 6431 1
6093 6431 6432 1
6094 6432 6433 1
6095 6433 6434 1
6096 6434 6435 1
6097 6435 6436 1
6098 6436 6437 1
6099 6437 6438 1
6100 6438 6439 1
6101 6439 6440 1
6102 6440 6441 1
6103 6442 6443 1
6104 6443 6444 1
6105 6444 6445 1
6106 6445 6446 1
6107 6446 6447 1
6108 6447 6448 1
6109 6448 6449 1
6110 6449 6450 1
6111 6450 6451 1
6112 6451 6452 1
6113 6452 6453 1
6114 6453 6454 1
6115 6454 6455 1
6116 6455 6456 1
6117 6456 6457 1
6118 6457 6458 1
6119 6458 6459 1
6120 6459 6460 1
6121 6461 6462 1
6122 6462 6463 1
6123 6463 6464 1
6124 6464 6465 1
6125 6465 6466 1
6126 6466 6467 1
6127 6467 6468 1
6128 6468 6469 1
6129 6469 6470 1
6130 6470 6471 1
6131 6471 6472 1
6132 6472 6473 1
6133 6473 6474 1
6134 6474 6475 1
6135 6475 6476 1
6136 6476 6477 1
6137 6477 6478 1
6138 6478 6479 1
6139 6480 6481 1
6140 6481 6482 1
6141 6482 6483 1
6142 6483 6484 1
6143 6484 6485 1
6144 6485 6486 1
6145 6486 6487 1
6146 6487 6488 1
6147 6488 6489 1
6148 6489 6490 1
6149 6490 6491 1
6150 6491 6492 1
6151 6492 6493 1
6152 6493 6494 1
6153 6494 6495 1
6154 6495 6496 1
6155 6496 6497 1
6156 6497 6498 1
6157 6499 6500 1
6158 6500 6501 1
6159 6501 6502 1
6160 6502 6503 1
6161 6503 6504 1
6162 6504 6505 1
6163 6505 6506 1
6164 6506 6507 1
6165 6507 6508 1
6166 6508 6509 1
6167 6509 6510 1
6168 6510 6511 1
6169 6511 6512 1
6170 6512 6513 1
6171 6513 6514 1
6172 6514 6515 1
6173 6515 6516 1
6174 6516 6517 1
6175 6518 6519 1
6176 6519 6520 1
6177 6520 6521 1
6178 6521 6522 1
6179 6522 6523 1
6180 6523 6524 1
6181 6524 6525 1
6182 6525 6526 1
6183 6526 6527 1
6184 6527 6528 1
6185 6528 6529 1
6186 6529 6530 1
6187 6530 6531 1
6188 6531 6532 1
6189 6532 6533 1
6190 6533 6534 1
6191 6534 6535 1
6192 6535 6536 1
6193 6537 6538 1
6194 6538 6539 1
6195 6539 6540 1
6196 6540 6541 1
6197 6541 6542 1
6198 6542 6543 1
6199 6543 6544 1
6200 6544 6545 1
6201 6545 6546 1
6202 6546 6547 1
6203 6547 6548 1
6204 6548 6549 1
6205 6549 6550 1
6206 6550 6551 1
6207 6551 6552 1
6208 6552 6553 1
6209 6553 6554 1
6210 6554 6555 1
6211 6556 6557 1
6212 6557 6558 1
6213 6558 6559 1
6214 6559 6560 1
6215 6560 6561 1
6216 6561 6562 1
6217 6562 6563 1
6218 6563 6564 1
6219 6564 6565 1
6220 6565 6566 1
6221 6566 6567 1
6222 6567 6568 1
6223 6568 6569 1
6224 6569 6570 1
6225 6570 6571 1
6226 6571 6572 1
6227 6572 6573 1
6228 6573 6574 1
6229 6575 6576 1
6230 6576 6577 1
6231 6577 6578 1
6232 6578 6579 1
6233 6579 6580 1
6234 6580 6581 1
6235 6581 6582 1
6236 6582 6583 1
6237 6583 6584 1
6238 6584 6585 1
6239 6585 6586 1
6240 6586 6587 1
6241 6587 6588 1
6242 6588 6589 1
6243 6589 6590 1
6244 6590 6591 1
6245 6591 6592 1
6246 6592 6593 1
6247 6594 6595 1
6248 6595 6596 1
6249 6596 6597 1
6250 6597 6598 1
6251 6598 6599 1
6252 6599 6600 1
6253 6600 6601 1
6254 6601 6602 1
6255 6602 6603 1
6256 6603 6604 1
6257 6604 6605 1
6258 6605 6606 1
6259 6606 6607 1
6260 6607 6608 1
6261 6608 6609 1
6262 6609 6610 1
6263 6610 6611 1
6264 6611 6612 1
6265 6613 6614 1
6266 6614 6615 1
6267 6615 6616 1
6268 6616 6617 1
6269 6617 6618 1
6270 6618 6619 1
6271 6619 6620 1
6272 6620 6621 1
6273 6621 6622 1
6274 6622 6623 1
6275 6623 6624 1
6276 6624 6625 1
6277 6625 6626 1
6278 6626 6627 1
6279 6627 6628 1
6280 6628 6629 1
6281 6629 6630 1
6282 6630 6631 1
6283 6632 6633 1
6284 6633 6634 1
6285 6634 6635 1
6286 6635 6636 1
6287 6636 6637 1
6288 6637 6638 1
6289 6638 6639 1
6290 6639 6640 1
6291 6640 6641 1
6292 6641 6642 1
6293 6642 6643 1
6294 6643 6644 1
6295 6644 6645 1
6296 6645 6646 1
6297 6646 6647 1
6298 6647 6648 1
6299 6648 6649 1
6300 6649 6650 1
6301 6651 6652 1
6302 6652 6653 1
6303 6653 6654 1
6304 6654 6655 1
6305 6655 6656 1
6306 6656 6657 1
6307 6657 6658 1
6308 6658 6659 1
6309 6659 6660 1
6310 6660 6661 1
6311 6661 6662 1
6312 6662 6663 1
6313 6663 6664 1
6314 6664 6665 1
6315 6665 6666 1
6316 6666 6667 1
6317 6667 6668 1
6318 6668 6669 1
6319 6670 6671 1
6320 6671 6672 1
6321 6672 6673 1
6322 6673 6674 1
6323 6674 6675 1
6324 6675 6676 1
6325 6676 6677 1
6326 6677 6678 1
6327 6678 6679 1
6328 6679 6680 1
6329 6680 6681 1
6330 6681 6682 1
6331 6682 6683 1
6332 6683 6684 1
6333 6684 6685 1
6334 6685 6686 1
6335 6686 6687 1
6336 6687 6688 1
6337 6689 6690 1
6338 6690 6691 1
6339 6691 6692 1
6340 6692 6693 1
6341 6693 6694 1
6342 6694 6695 1
6343 6695 6696 1
6344 6696 6697 1
6345 6697 6698 1
6346 6698 6699 1
6347 6699 6700 1
6348 6700 6701 1
6349 6701 6702 1
6350 6702 6703 1
6351 6703 6704 1
6352 6704 6705 1
6353 6705 6706 1
6354 6706 6707 1
6355 6708 6709 1
6356 6709 6710 1
6357 6710 6711 1
6358 6711 6712 1
6359 6712 6713 1
6360 6713 6714 1
6361 6714 6715 1
6362 6715 6716 1
6363 6716 6717 1
6364 6717 6718 1
6365 6718 6719 1
6366 6719 6720 1
6367 6720 6721 1
6368 6721 6722 1
6369 6722 6723 1
6370 6723 6724 1
6371 6724 6725 1
6372 6725 6726 1
6373 6727 6728 1
6374 6728 6729 1
6375 6729 6730 1
6376 6730 6731 1
6377 6731 6732 1
6378 6732 6733 1
6379 6733 6734 1
6380 6734 6735 1
6381 6735 6736 1
6382 6736 6737 1
6383 6737 6738 1
6384 6738 6739 1
6385 6739 6740 1
6386 6740 6741 1
6387 6741 6742 1
6388 6742 6743 1
6389 6743 6744 1
6390 6744 6745 1
6391 6746 6747 1
6392 6747 6748 1
6393 6748 6749 1
6394 6749 6750 1
6395 6750 6751 1
6396 6751 6752 1
6397 6752 6753 1
6398 6753 6754 1
6399 6754 6755 1
6400 6755 6756 1
6401 6756 6757 1
6402 6757 6758 1
6403 6758 6759 1
6404 6759 6760 1
6405 6760 6761 1
6406 6761 6762 1
6407 6762 6763 1
6408 6763 6764 1
6409 6765 6766 1
6410 6766 6767 1
6411 6767 6768 1
6412 6768 6769 1
6413 6769 6770 1
6414 6770 6771 1
6415 6771 6772 1
6416 6772 6773 1
6417 6773 6774 1
6418 6774 6775 1
6419 6775 6776 1
6420 6776 6777 1
6421 6777 6778 1
6422 6778 6779 1
6423 6779 6780 1
6424 6780 6781 1
6425 6781 6782 1
6426 6782 6783 1
6427 6784 6785 1
6428 6785 6786 1
6429 6786 6787 1
6430 6787 6788 1
6431 6788 6789 1
6432 6789 6790 1
6433 6790 6791 1
6434 6791 6792 1
6435 6792 6793 1
6436 6793 6794 1
6437 6794 6795 1
6438 6795 6796 1
6439 6796 6797 1
6440 6797 6798 1
6441 6798 6799 1
6442 6799 6800 1
6443 6800 6801 1
6444 6801 6802 1
6445 6803 6804 1
6446 6804 6805 1
6447 6805 6806 1
6448 6806 6807 1
6449 6807 6808 1
6450 6808 6809 1
6451 6809 6810 1
6452 6810 6811 1
6453 6811 6812 1
6454 6812 6813 1
6455 6813 6814 1
6456 6814 6815 1
6457 6815 6816 1
6458 6816 6817 1
6459 6817 6818 1
6460 6818 6819 1
6461 6819 6820 1
6462 6820 6821 1
6463 6822 6823 1
6464 6823 6824 1
6465 6824 6825 1
6466 6825 6826 1
6467 6826 6827 1
6468 6827 6828 1
6469 6828 6829 1
6470 6829 6830 1
6471 6830 6831 1
6472 6831 6832 1
6473 6832 6833 1
6474 6833 6834 1
6475 6834 6835 1
6476 6835 6836 1
6477 6836 6837 1
6478 6837 6838 1
6479 6838 6839 1
6480 6839 6840 1
6481 6841 6842 1
6482 6842 6843 1
6483 6843 6844 1
6484 6844 6845 1
6485 6845 6846 1
6486 6846 6847 1
6487 6847 6848 1
6488 6848 6849 1
6489 6849 6850 1
6490 6850 6851 1
6491 6851 6852 1
6492 6852 6853 1
6493 6853 6854 1
6494 6854 6855 1
6495 6855 6856 1
6496 6856 6857 1
6497 6857 6858 1
6498 6858 6859 1
6499 6860 6861 1
6500 6861 6862 1
6501 6862 6863 1
6502 6863 6864 1
6503 6864 6865 1
6504 6865 6866 1
6505 6866 6867 1
6506 6867 6868 1
6507 6868 6869 1
6508 6869 6870 1
6509 6870 6871 1
6510 6871 6872 1
6511 6872 6873 1
6512 6873 6874 1
6513 6874 6875 1
6514 6875 6876 1
6515 6876 6877 1
6516 6877 6878 1
6517 6879 6880 1
6518 6880 6881 1
6519 6881 6882 1
6520 6882 6883 1
6521 6883 6884 1
6522 6884 6885 1
6523 6885 6886 1
6524 6886 6887 1
6525 6887 6888 1
6526 6888 6889 1
6527 6889 6890 1
6528 6890 6891 1
6529 6891 6892 1
6530 6892 6893 1
6531 6893 6894 1
6532 6894 6895 1
6533 6895 6896 1
6534 6896 6897 1
6535 6898 6899 1
6536 6899 6900 1
6537 6900 6901 1
6538 6901 6902 1
6539 6902 6903 1
6540 6903 6904 1
6541 6904 6905 1
6542 6905 6906 1
6543 6906 6907 1
6544 6907 6908 1
6545 6908 6909 1
6546 6909 6910 1
6547 6910 6911 1
6548 6911 6912 1
6549 6912 6913 1
6550 6913 6914 1
6551 6914 6915 1
6552 6915 6916 1
6553 6917 6918 1
6554 6918 6919 1
6555 6919 6920 1
6556 6920 6921 1
6557 6921 6922 1
6558 6922 6923 1
6559 6923 6924 1
6560 6924 6925 1
6561 6925 6926 1
6562 6926 6927 1
6563 6927 6928 1
6564 6928 6929 1
6565 6929 6930 1
6566 6930 6931 1
6567 6931 6932 1
6568 6932 6933 1
6569 6933 6934 1
6570 6934 6935 1
6571 6936 6937 1
6572 6937 6938 1
6573 6938 6939 1
6574 6939 6940 1
6575 6940 6941 1
6576 6941 6942 1
6577 6942 6943 1
6578 6943 6944 1
6579 6944 6945 1
6580 6945 6946 1
6581 6946 6947 1
6582 6947 6948 1
6583 6948 6949 1
6584 6949 6950 1
6585 6950 6951 1
6586 6951 6952 1
6587 6952 6953 1
6588 6953 6954 1
6589 6955 6956 1
6590 6956 6957 1
6591 6957 6958 1
6592 6958 6959 1
6593 6959 6960 1
6594 6960 6961 1
6595 6961 6962 1
6596 6962 6963 1
6597 6963 6964 1
6598 6964 6965 1
6599 6965 6966 1
6600 6966 6967 1
6601 6967 6968 1
6602 6968 6969 1
6603 6969 6970 1
6604 6970 6971 1
6605 6971 6972 1
6606 6972 6973 1
6607 6974 6975 1
6608 6975 6976 1
6609 6976 6977 1
6610 6977 6978 1
6611 6978 6979 1
6612 6979 6980 1
6613 6980 6981 1
6614 6981 6982 1
6615 6982 6983 1
6616 6983 6984 1
6617 6984 6985 1
6618 6985 6986 1
6619 6986 6987 1
6620 6987 6988 1
6621 6988 6989 1
6622 6989 6990 1
6623 6990 6991 1
6624 6991 6992 1
6625 6993 6994 1
6626 6994 6995 1
6627 6995 6996 1
6628 6996 6997 1
6629 6997 6998 1
6630 6998 6999 1
6631 6999 7000 1
6632 7000 7001 1
6633 7001 7002 1
6634 7002 7003 1
6635 7003 7004 1
6636 7004 7005 1
6637 7005 7006 1
6638 7006 7007 1
6639 7007 7008 1
6640 7008 7009 1
6641 7009 7010 1
6642 7010 7011 1
6643 7012 7013 1
6644 7013 7014 1
6645 7014 7015 1
6646 7015 7016 1
6647 7016 7017 1
6648 7017 7018 1
6649 7018 7019 1
6650 7019 7020 1
6651 7020 7021 1
6652 7021 7022 1
6653 7022 7023 1
6654 7023 7024 1
6655 7024 7025 1
6656 7025 7026 1
6657 7026 7027 1
6658 7027 7028 1
6659 7028 7029 1
6660 7029 7030 1
6661 7031 7032 1
6662 7032 7033 1
6663 7033 7034 1
6664 7034 7035 1
6665 7035 7036 1
6666 7036 7037 1
6667 7037 7038 1
6668 7038 7039 1
6669 7039 7040 1
6670 7040 7041 1
6671 7041 7042 1
6672 7042 7043 1
6673 7043 7044 1
6674 7044 7045 1
6675 7045 7046 1
6676 7046 7047 1
6677 7047 7048 1
6678 7048 7049 1
6679 7050 7051 1
6680 7051 7052 1
6681 7052 7053 1
6682 7053 7054 1
6683 7054 7055 1
6684 7055 7056 1
6685 7056 7057 1
6686 7057 7058 1
6687 7058 7059 1
6688 7059 7060 1
6689 7060 7061 1
6690 7061 7062 1
6691 7062 7063 1
6692 7063 7064 1
6693 7064 7065 1
6694 7065 7066 1
6695 7066 7067 1
6696 7067 7068 1
6697 7069 7070 1
6698 7070 7071 1
6699 7071 7072 1
6700 7072 7073 1
6701 7073 7074 1
6702 7074 7075 1
6703 7075 7076 1
6704 7076 7077 1
6705 7077 7078 1
6706 7078 7079 1
6707 7079 7080 1
6708 7080 7081 1
6709 7081 7082 1
6710 7082 7083 1
6711 7083 7084 1
6712 7084 7085 1
6713 7085 7086 1
6714 7086 7087 1
6715 7088 7089 1
6716 7089 7090 1
6717 7090 7091 1
6718 7091 7092 1
6719 7092 7093 1
6720 7093 7094 1
6721 7094 7095 1
6722 7095 7096 1
6723 7096 7097 1
6724 7097 7098 1
6725 7098 7099 1
6726 7099 7100 1
6727 7100 7101 1
6728 7101 7102 1
6729 7102 7103 1
6730 7103 7104 1
6731 7104 7105 1
6732 7105 7106 1
6733 7107 7108 1
6734 7108 7109 1
6735 7109 7110 1
6736 7110 7111 1
6737 7111 7112 1
6738 7112 7113 1
6739 7113 7114 1
6740 7114 7115 1
6741 7115 7116 1
6742 7116 7117 1
6743 7117 7118 1
6744 7118 7119 1
6745 7119 7120 1
6746 7120 7121 1
6747 7121 7122 1
6748 7122 7123 1
6749 7123 7124 1
6750 7124 7125 1
6751 7126 7127 1
6752 7127 7128 1
6753 7128 7129 1
6754 7129 7130 1
6755 7130 7131 1
6756 7131 7132 1
6757 7132 7133 1
6758 7133 7134 1
6759 7134 7135 1
6760 7135 7136 1
6761 7136 7137 1
6762 7137 7138 1
6763 7138 7139 1
6764 7139 7140 1
6765 7140 7141 1
6766 7141 7142 1
6767 7142 7143 1
6768 7143 7144 1
6769 7145 7146 1
6770 7146 7147 1
6771 7147 7148 1
6772 7148 7149 1
6773 7149 7150 1
6774 7150 7151 1
6775 7151 7152 1
6776 7152 7153 1
6777 7153 7154 1
6778 7154 7155 1
6779 7155 7156 1
6780 7156 7157 1
6781 7157 7158 1
6782 7158 7159 1
6783 7159 7160 1
6784 7160 7161 1
6785 7161 7162 1
6786 7162 7163 1
6787 7164 7165 1
6788 7165 7166 1
6789 7166 7167 1
6790 7167 7168 1
6791 7168 7169 1
6792 7169 7170 1
6793 7170 7171 1
6794 7171 7172 1
6795 7172 7173 1
6796 7173 7174 1
6797 7174 7175 1
6798 7175 7176 1
6799 7176 7177 1
6800 7177 7178 1
6801 7178 7179 1
6802 7179 7180 1
6803 7180 7181 1
6804 7181 7182 1
6805 7183 7184 1
6806 7184 7185 1
6807 7185 7186 1
6808 7186 7187 1
6809 7187 7188 1
6810 7188 7189 1
6811 7189 7190 1
6812 7190 7191 1
6813 7191 7192 1
6814 7192 7193 1
6815 7193 7194 1
6816 7194 7195 1
6817 7195 7196 1
6818 7196 7197 1
6819 7197 7198 1
6820 7198 7199 1
6821 7199 7200 1
6822 7200 7201 1
6823 7202 7203 1
6824 7203 7204 1
6825 7204 7205 1
6826 7205 7206 1
6827 7206 7207 1
6828 7207 7208 1
6829 7208 7209 1
6830 7209 7210 1
6831 7210 7211 1
6832 7211 7212 1
6833 7212 7213 1
6834 7213 7214 1
6835 7214 7215 1
6836 7215 7216 1
6837 7216 7217 1
6838 7217 7218 1
6839 7218 7219 1
6840 7219 7220 1
6841 7221 7222 1
6842 7222 7223 1
6843 7223 7224 1
6844 7224 7225 1
6845 7225 7226 1
6846 7226 7227 1
6847 7227 7228 1
6848 7228 7229 1
6849 7229 7230 1
6850 7230 7231 1
6851 7231 7232 1
6852 7232 7233 1
6853 7233 7234 1
6854 7234 7235 1
6855 7235 7236 1
6856 7236 7237 1
6857 7237 7238 1
6858 7238 7239 1
6859 7240 7241 1
6860 7241 7242 1
6861 7242 7243 1
6862 7243 7244 1
6863 7244 7245 1
6864 7245 7246 1
6865 7246 7247 1
6866 7247 7248 1
6867 7248 7249 1
6868 7249 7250 1
6869 7250 7251 1
6870 7251 7252 1
6871 7252 7253 1
6872 7253 7254 1
6873 7254 7255 1
6874 7255 7256 1
6875 7256 7257 1
6876 7257 7258 1
6877 7259 7260 1
6878 7260 7261 1
6879 7261 7262 1
6880 7262 7263 1
6881 7263 7264 1
6882 7264 7265 1
6883 7265 7266 1
6884 7266 7267 1
6885 7267 7268 1
6886 7268 7269 1
6887 7269 7270 1
6888 7270 7271 1
6889 7271 7272 1
6890 7272 7273 1
6891 7273 7274 1
6892 7274 7275 1
6893 7275 7276 1
6894 7276 7277 1
6895 7278 7279 1
6896 7279 7280 1
6897 7280 7281 1
6898 7281 7282 1
6899 7282 7283 1
6900 7283 7284 1
6901 7284 7285 1
6902 7285 7286 1
6903 7286 7287 1
6904 7287 7288 1
6905 7288 7289 1
6906 7289 7290 1
6907 7290 7291 1
6908 7291 7292 1
6909 7292 7293 1
6910 7293 7294 1
6911 7294 7295 1
6912 7295 7296 1
6913 7297 7298 1
6914 7298 7299 1
6915 7299 7300 1
6916 7300 7301 1
6917 7301 7302 1
6918 7302 7303 1
6919 7303 7304 1
6920 7304 7305 1
6921 7305 7306 1
6922 7306 7307 1
6923 7307 7308 1
6924 7308 7309 1
6925 7309 7310 1
6926 7310 7311 1
6927 7311 7312 1
6928 7312 7313 1
6929 7313 7314 1
6930 7314 7315 1
6931 7316 7317 1
6932 7317 7318 1
6933 7318 7319 1
6934 7319 7320 1
6935 7320 7321 1
6936 7321 7322 1
6937 7322 7323 1
6938 7323 7324 1
6939 7324 7325 1
6940 7325 7326 1
6941 7326 7327 1
6942 7327 7328 1
6943 7328 7329 1
6944 7329 7330 1
6945 7330 7331 1
6946 7331 7332 1
6947 7332 7333 1
6948 7333 7334 1
6949 7335 7336 1
6950 7336 7337 1
6951 7337 7338 1
6952 7338 7339 1
6953 7339 7340 1
6954 7340 7341 1
6955 7341 7342 1
6956 7342 7343 1
6957 7343 7344 1
6958 7344 7345 1
6959 7345 7346 1
6960 7346 7347 1
6961 7347 7348 1
6962 7348 7349 1
6963 7349 7350 1
6964 7350 7351 1
6965 7351 7352 1
6966 7352 7353 1
6967 7354 7355 1
6968 7355 7356 1
6969 7356 7357 1
6970 7357 7358 1
6971 7358 7359 1
6972 7359 7360 1
6973 7360 7361 1
6974 7361 7362 1
6975 7362 7363 1
6976 7363 7364 1
6977 7364 7365 1
6978 7365 7366 1
6979 7366 7367 1
6980 7367 7368 1
6981 7368 7369 1
6982 7369 7370 1
6983 7370 7371 1
6984 7371 7372 1
6985 7373 7374 1
6986 7374 7375 1
6987 7375 7376 1
6988 7376 7377 1
6989 7377 7378 1
6990 7378 7379 1
6991 7379 7380 1
6992 7380 7381 1
6993 7381 7382 1
6994 7382 7383 1
6995 7383 7384 1
6996 7384 7385 1
6997 7385 7386 1
6998 7386 7387 1
6999 7387 7388 1
7000 7388 7389 1
7001 7389 7390 1
7002 7390 7391 1
7003 7392 7393 1
7004 7393 7394 1
7005 7394 7395 1
7006 7395 7396 1
7007 7396 7397 1
7008 7397 7398 1
7009 7398 7399 1
7010 7399 7400 1
7011 7400 7401 1
7012 7401 7402 1
7013 7402 7403 1
7014 7403 7404 1
7015 7404 7405 1
7016 7405 7406 1
7017 7406 7407 1
7018 7407 7408 1
7019 7408 7409 1
7020 7409 7410 1
7021 7411 7412 1
7022 7412 7413 1
7023 7413 7414 1
7024 7414 7415 1
7025 7415 7416 1
7026 7416 7417 1
7027 7417 7418 1
7028 7418 7419 1
7029 7419 7420 1
7030 7420 7421 1
7031 7421 7422 1
7032 7422 7423 1
7033 7423 7424 1
7034 7424 7425 1
7035 7425 7426 1
7036 7426 7427 1
7037 7427 7428 1
7038 7428 7429 1
7039 7430 7431 1
7040 7431 7432 1
7041 7432 7433 1
7042 7433 7434 1
7043 7434 7435 1
7044 7435 7436 1
7045 7436 7437 1
7046 7437 7438 1
7047 7438 7439 1
7048 7439 7440 1
7049 7440 7441 1
7050 7441 7442 1
7051 7442 7443 1
7052 7443 7444 1
7053 7444 7445 1
7054 7445 7446 1
7055 7446 7447 1
7056 7447 7448 1
7057 7449 7450 1
7058 7450 7451 1
7059 7451 7452 1
7060 7452 7453 1
7061 7453 7454 1
7062 7454 7455 1
7063 7455 7456 1
7064 7456 7457 1
7065 7457 7458 1
7066 7458 7459 1
7067 7459 7460 1
7068 7460 7461 1
7069 7461 7462 1
7070 7462 7463 1
7071 7463 7464 1
7072 7464 7465 1
7073 7465 7466 1
7074 7466 7467 1
7075 7468 7469 1
7076 7469 7470 1
7077 7470 7471 1
7078 7471 7472 1
7079 7472 7473 1
7080 7473 7474 1
7081 7474 7475 1
7082 7475 7476 1
7083 7476 7477 1
7084 7477 7478 1
7085 7478 7479 1
7086 7479 7480 1
7087 7480 7481 1
7088 7481 7482 1
7089 7482 7483 1
7090 7483 7484 1
7091 7484 7485 1
7092 7485 7486 1
7093 7487 7488 1
7094 7488 7489 1
7095 7489 7490 1
7096 7490 7491 1
7097 7491 7492 1
7098 7492 7493 1
7099 7493 7494 1
7100 7494 7495 1
7101 7495 7496 1
7102 7496 7497 1
7103 7497 7498 1
7104 7498 7499 1
7105 7499 7500 1
7106 7500 7501 1
7107 7501 7502 1
7108 7502 7503 1
7109 7503 7504 1
7110 7504 7505 1
7111 7506 7507 1
7112 7507 7508 1
7113 7508 7509 1
7114 7509 7510 1
7115 7510 7511 1
7116 7511 7512 1
7117 7512 7513 1
7118 7513 7514 1
7119 7514 7515 1
7120 7515 7516 1
7121 7516 7517 1
7122 7517 7518 1
7123 7518 7519 1
7124 7519 7520 1
7125 7520 7521 1
7126 7521 7522 1
7127 7522 7523 1
7128 7523 7524 1
7129 7525 7526 1
7130 7526 7527 1
7131 7527 7528 1
7132 7528 7529 1
7133 7529 7530 1
7134 7530 7531 1
7135 7531 7532 1
7136 7532 7533 1
7137 7533 7534 1
7138 7534 7535 1
7139 7535 7536 1
7140 7536 7537 1
7141 7537 7538 1
7142 7538 7539 1
7143 7539 7540 1
7144 7540 7541 1
7145 7541 7542 1
7146 7542 7543 1
7147 7544 7545 1
7148 7545 7546 1
7149 7546 7547 1
7150 7547 7548 1
7151 7548 7549 1
7152 7549 7550 1
7153 7550 7551 1
7154 7551 7552 1
7155 7552 7553 1
7156 7553 7554 1
7157 7554 7555 1
7158 7555 7556 1
7159 7556 7557 1
7160 7557 7558 1
7161 7558 7559 1
7162 7559 7560 1
7163 7560 7561 1
7164 7561 7562 1
7165 7563 7564 1
7166 7564 7565 1
7167 7565 7566 1
7168 7566 7567 1
7169 7567 7568 1
7170 7568 7569 1
7171 7569 7570 1
7172 7570 7571 1
7173 7571 7572 1
7174 7572 7573 1
7175 7573 7574 1
7176 7574 7575 1
7177 7575 7576 1
7178 7576 7577 1
7179 7577 7578 1
7180 7578 7579 1
7181 7579 7580 1
7182 7580 7581 1
7183 7582 7583 1
7184 7583 7584 1
7185 7584 7585 1
7186 7585 7586 1
7187 7586 7587 1
7188 7587 7588 1
7189 7588 7589 1
7190 7589 7590 1
7191 7590 7591 1
7192 7591 7592 1
7193 7592 7593 1
7194 7593 7594 1
7195 7594 7595 1
7196 7595 7596 1
7197 7596 7597 1
7198 7597 7598 1
7199 7598 7599 1
7200 7599 7600 1
7201 7601 7602 1
7202 7602 7603 1
7203 7603 7604 1
7204 7604 7605 1
7205 7605 7606 1
7206 7606 7607 1
7207 7607 7608 1
7208 7608 7609 1
7209 7609 7610 1
7210 7610 7611 1
7211 7611 7612 1
7212 7612 7613 1
7213 7613 7614 1
7214 7614 7615 1
7215 7615 7616 1
7216 7616 7617 1
7217 7617 7618 1
7218 7618 7619 1
7219 7620 7621 1
7220 7621 7622 1
7221 7622 7623 1
7222 7623 7624 1
7223 7624 7625 1
7224 7625 7626 1
7225 7626 7627 1
7226 7627 7628 1
7227 7628 7629 1
7228 7629 7630 1
7229 7630 7631 1
7230 7631 7632 1
7231 7632 7633 1
7232 7633 7634 1
7233 7634 7635 1
7234 7635 7636 1
7235 7636 7637 1
7236 7637 7638 1
7237 7639 7640 1
7238 7640 7641 1
7239 7641 7642 1
7240 7642 7643 1
7241 7643 7644 1
7242 7644 7645 1
7243 7645 7646 1
7244 7646 7647 1
7245 7647 7648 1
7246 7648 7649 1
7247 7649 7650 1
7248 7650 7651 1
7249 7651 7652 1
7250 7652 7653 1
7251 7653 7654 1
7252 7654 7655 1
7253 7655 7656 1
7254 7656 7657 1
7255 7658 7659 1
7256 7659 7660 1
7257 7660 7661 1
7258 7661 7662 1
7259 7662 7663 1
7260 7663 7664 1
7261 7664 7665 1
7262 7665 7666 1
7263 7666 7667 1
7264 7667 7668 1
7265 7668 7669 1
7266 7669 7670 1
7267 7670 7671 1
7268 7671 7672 1
7269 7672 7673 1
7270 7673 7674 1
7271 7674 7675 1
7272 7675 7676 1
7273 7677 7678 1
7274 7678 7679 1
7275 7679 7680 1
7276 7680 7681 1
7277 7681 7682 1
7278 7682 7683 1
7279 7683 7684 1
7280 7684 7685 1
7281 7685 7686 1
7282 7686 7687 1
7283 7687 7688 1
7284 7688 7689 1
7285 7689 7690 1
7286 7690 7691 1
7287 7691 7692 1
7288 7692 7693 1
7289 7693 7694 1
7290 7694 7695 1
7291 7696 7697 1
7292 7697 7698 1
7293 7698 7699 1
7294 7699 7700 1
7295 7700 7701 1
7296 7701 7702 1
7297 7702 7703 1
7298 7703 7704 1
7299 7704 7705 1
7300 7705 7706 1
7301 7706 7707 1
7302 7707 7708 1
7303 7708 7709 1
7304 7709 7710 1
7305 7710 7711 1
7306 7711 7712 1
7307 7712 7713 1
7308 7713 7714 1
7309 7715 7716 1
7310 7716 7717 1
7311 7717 7718 1
7312 7718 7719 1
7313 7719 7720 1
7314 7720 7721 1
7315 7721 7722 1
7316 7722 7723 1
7317 7723 7724 1
7318 7724 7725 1
7319 7725 7726 1
7320 7726 7727 1
7321 7727 7728 1
7322 7728 7729 1
7323 7729 7730 1
7324 7730 7731 1
7325 7731 7732 1
7326 7732 7733 1
7327 7734 7735 1
7328 7735 7736 1
7329 7736 7737 1
7330 7737 7738 1
7331 7738 7739 1
7332 7739 7740 1
7333 7740 7741 1
7334 7741 7742 1
7335 7742 7743 1
7336 7743 7744 1
7337 7744 7745 1
7338 7745 7746 1
7339 7746 7747 1
7340 7747 7748 1
7341 7748 7749 1
7342 7749 7750 1
7343 7750 7751 1
7344 7751 7752 1
7345 7753 7754 1
7346 7754 7755 1
7347 7755 7756 1
7348 7756 7757 1
7349 7757 7758 1
7350 7758 7759 1
7351 7759 7760 1
7352 7760 7761 1
7353 7761 7762 1
7354 7762 7763 1
7355 7763 7764 1
7356 7764 7765 1
7357 7765 7766 1
7358 7766 7767 1
7359 7767 7768 1
7360 7768 7769 1
7361 7769 7770 1
7362 7770 7771 1
7363 7772 7773 1
7364 7773 7774 1
7365 7774 7775 1
7366 7775 7776 1
7367 7776 7777 1
7368 7777 7778 1
7369 7778 7779 1
7370 7779 7780 1
7371 7780 7781 1
7372 7781 7782 1
7373 7782 7783 1
7374 7783 7784 1
7375 7784 7785 1
7376 7785 7786 1
7377 7786 7787 1
7378 7787 7788 1
7379 7788 7789 1
7380 7789 7790 1
7381 7791 7792 1
7382 7792 7793 1
7383 7793 7794 1
7384 7794 7795 1
7385 7795 7796 1
7386 7796 7797 1
7387 7797 7798 1
7388 7798 7799 1
7389 7799 7800 1
7390 7800 7801 1
7391 7801 7802 1
7392 7802 7803 1
7393 7803 7804 1
7394 7804 7805 1
7395 7805 7806 1
7396 7806 7807 1
7397 7807 7808 1
7398 7808 7809 1
7399 7810 7811 1
7400 7811 7812 1
7401 7812 7813 1
7402 7813 7814 1
7403 7814 7815 1
7404 7815 7816 1
7405 7816 7817 1
7406 7817 7818 1
7407 7818 7819 1
7408 7819 7820 1
7409 7820 7821 1
7410 7821 7822 1
7411 7822 7823 1
7412 7823 7824 1
7413 7824 7825 1
7414 7825 7826 1
7415 7826 7827 1
7416 7827 7828 1
7417 7829 7830 1
7418 7830 7831 1
7419 7831 7832 1
7420 7832 7833 1
7421 7833 7834 1
7422 7834 7835 1
7423 7835 7836 1
7424 7836 7837 1
7425 7837 7838 1
7426 7838 7839 1
7427 7839 7840 1
7428 7840 7841 1
7429 7841 7842 1
7430 7842 7843 1
7431 7843 7844 1
7432 7844 7845 1
7433 7845 7846 1
7434 7846 7847 1
7435 7848 7849 1
7436 7849 7850 1
7437 7850 7851 1
7438 7851 7852 1
7439 7852 7853 1
7440 7853 7854 1
7441 7854 7855 1
7442 7855 7856 1
7443 7856 7857 1
7444 7857 7858 1
7445 7858 7859 1
7446 7859 7860 1
7447 7860 7861 1
7448 7861 7862 1
7449 7862 7863 1
7450 7863 7864 1
7451 7864 7865 1
7452 7865 7866 1
7453 7867 7868 1
7454 7868 7869 1
7455 7869 7870 1
7456 7870 7871 1
7457 7871 7872 1
7458 7872 7873 1
7459 7873 7874 1
7460 7874 7875 1
7461 7875 7876 1
7462 7876 7877 1
7463 7877 7878 1
7464 7878 7879 1
7465 7879 7880 1
7466 7880 7881 1
7467 7881 7882 1
7468 7882 7883 1
7469 7883 7884 1
7470 7884 7885 1
7471 7886 7887 1
7472 7887 7888 1
7473 7888 7889 1
7474 7889 7890 1
7475 7890 7891 1
7476 7891 7892 1
7477 7892 7893 1
7478 7893 7894 1
7479 7894 7895 1
7480 7895 7896 1
7481 7896 7897 1
7482 7897 7898 1
7483 7898 7899 1
7484 7899 7900 1
7485 7900 7901 1
7486 7901 7902 1
7487 7902 7903 1
7488 7903 7904 1
7489 7905 7906 1
7490 7906 7907 1
7491 7907 7908 1
7492 7908 7909 1
7493 7909 7910 1
7494 7910 7911 1
7495 7911 7912 1
7496 7912 7913 1
7497 7913 7914 1
7498 7914 7915 1
7499 7915 7916 1
7500 7916 7917 1
7501 7917 7918 1
7502 7918 7919 1
7503 7919 7920 1
7504 7920 7921 1
7505 7921 7922 1
7506 7922 7923 1
7507 7924 7925 1
7508 7925 7926 1
7509 7926 7927 1
7510 7927 7928 1
7511 7928 7929 1
7512 7929 7930 1
7513 7930 7931 1
7514 7931 7932 1
7515 7932 7933 1
7516 7933 7934 1
7517 7934 7935 1
7518 7935 7936 1
7519 7936 7937 1
7520 7937 7938 1
7521 7938 7939 1
7522 7939 7940 1
7523 7940 7941 1
7524 7941 7942 1
7525 7943 7944 1
7526 7944 7945 1
7527 7945 7946 1
7528 7946 7947 1
7529 7947 7948 1
7530 7948 7949 1
7531 7949 7950 1
7532 7950 7951 1
7533 7951 7952 1
7534 7952 7953 1
7535 7953 7954 1
7536 7954 7955 1
7537 7955 7956 1
7538 7956 7957 1
7539 7957 7958 1
7540 7958 7959 1
7541 7959 7960 1
7542 7960 7961 1
7543 7962 7963 1
7544 7963 7964 1
7545 7964 7965 1
7546 7965 7966 1
7547 7966 7967 1
7548 7967 7968 1
7549 7968 7969 1
7550 7969 7970 1
7551 7970 7971 1
7552 7971 7972 1
7553 7972 7973 1
7554 7973 7974 1
7555 7974 7975 1
7556 7975 7976 1
7557 7976 7977 1
7558 7977 7978 1
7559 7978 7979 1
7560 7979 7980 1
7561 7981 7982 1
7562 7982 7983 1
7563 7983 7984 1
7564 7984 7985 1
7565 7985 7986 1
7566 7986 7987 1
7567 7987 7988 1
7568 7988 7989 1
7569 7989 7990 1
7570 7990 7991 1
7571 7991 7992 1
7572 7992 7993 1
7573 7993 7994 1
7574 7994 7995 1
7575 7995 7996 1
7576 7996 7997 1
7577 7997 7998 1
7578 7998 7999 1
7579 8000 8001 1
7580 8001 8002 1
7581 8002 8003 1
7582 8003 8004 1
7583 8004 8005 1
7584 8005 8006 1
7585 8006 8007 1
7586 8007 8008 1
7587 8008 8009 1
7588 8009 8010 1
7589 8010 8011 1
7590 8011 8012 1
7591 8012 8013 1
7592 8013 8014 1
7593 8014 8015 1
7594 8015 8016 1
7595 8016 8017 1
7596 8017 8018 1
7597 8019 8020 1
7598 8020 8021 1
7599 8021 8022 1
7600 8022 8023 1
7601 8023 8024 1
7602 8024 8025 1
7603 8025 8026 1
7604 8026 8027 1
7605 8027 8028 1
7606 8028 8029 1
7607 8029 8030 1
7608 8030 8031 1
7609 8031 8032 1
7610 8032 8033 1
7611 8033 8034 1
7612 8034 8035 1
7613 8035 8036 1
7614 8036 8037 1
7615 8038 8039 1
7616 8039 8040 1
7617 8040 8041 1
7618 8041 8042 1
7619 8042 8043 1
7620 8043 8044 1
7621 8044 8045 1
7622 8045 8046 1
7623 8046 8047 1
7624 8047 8048 1
7625 8048 8049 1
7626 8049 8050 1
7627 8050 8051 1
7628 8051 8052 1
7629 8052 8053 1
7630 8053 8054 1
7631 8054 8055 1
7632 8055 8056 1
7633 8057 8058 1
7634 8058 8059 1
7635 8059 8060 1
7636 8060 8061 1
7637 8061 8062 1
7638 8062 8063 1
7639 8063 8064 1
7640 8064 8065 1
7641 8065 8066 1
7642 8066 8067 1
7643 8067 8068 1
7644 8068 8069 1
7645 8069 8070 1
7646 8070 8071 1
7647 8071 8072 1
7648 8072 8073 1
7649 8073 8074 1
7650 8074 8075 1
7651 8076 8077 1
7652 8077 8078 1
7653 8078 8079 1
7654 8079 8080 1
7655 8080 8081 1
7656 8081 8082 1
7657 8082 8083 1
7658 8083 8084 1
7659 8084 8085 1
7660 8085 8086 1
7661 8086 8087 1
7662 8087 8088 1
7663 8088 8089 1
7664 8089 8090 1
7665 8090 8091 1
7666 8091 8092 1
7667 8092 8093 1
7668 8093 8094 1
7669 8095 8096 1
7670 8096 8097 1
7671 8097 8098 1
7672 8098 8099 1
7673 8099 8100 1
7674 8100 8101 1
7675 8101 8102 1
7676 8102 8103 1
7677 8103 8104 1
7678 8104 8105 1
7679 8105 8106 1
7680 8106 8107 1
7681 8107 8108 1
7682 8108 8109 1
7683 8109 8110 1
7684 8110 8111 1
7685 8111 8112 1
7686 8112 8113 1
7687 8114 8115 1
7688 8115 8116 1
7689 8116 8117 1
7690 8117 8118 1
7691 8118 8119 1
7692 8119 8120 1
7693 8120 8121 1
7694 8121 8122 1
7695 8122 8123 1
7696 8123 8124 1
7697 8124 8125 1
7698 8125 8126 1
7699 8126 8127 1
7700 8127 8128 1
7701 8128 8129 1
7702 8129 8130 1
7703 8130 8131 1
7704 8131 8132 1
7705 8133 8134 1
7706 8134 8135 1
7707 8135 8136 1
7708 8136 8137 1
7709 8137 8138 1
7710 8138 8139 1
7711 8139 8140 1
7712 8140 8141 1
7713 8141 8142 1
7714 8142 8143 1
7715 8143 8144 1
7716 8144 8145 1
7717 8145 8146 1
7718 8146 8147 1
7719 8147 8148 1
7720 8148 8149 1
7721 8149 8150 1
7722 8150 8151 1
7723 8152 8153 1
7724 8153 8154 1
7725 8154 8155 1
7726 8155 8156 1
7727 8156 8157 1
7728 8157 8158 1
7729 8158 8159 1
7730 8159 8160 1
7731 8160 8161 1
7732 8161 8162 1
7733 8162 8163 1
7734 8163 8164 1
7735 8164 8165 1
7736 8165 8166 1
7737 8166 8167 1
7738 8167 8168 1
7739 8168 8169 1
7740 8169 8170 1
7741 8171 8172 1
7742 8172 8173 1
7743 8173 8174 1
7744 8174 8175 1
7745 8175 8176 1
7746 8176 8177 1
7747 8177 8178 1
7748 8178 8179 1
7749 8179 8180 1
7750 8180 8181 1
7751 8181 8182 1
7752 8182 8183 1
7753 8183 8184 1
7754 8184 8185 1
7755 8185 8186 1
7756 8186 8187 1
7757 8187 8188 1
7758 8188 8189 1
7759 8190 8191 1
7760 8191 8192 1
7761 8192 8193 1
7762 8193 8194 1
7763 8194 8195 1
7764 8195 8196 1
7765 8196 8197 1
7766 8197 8198 1
7767 8198 8199 1
7768 8199 8200 1
7769 8200 8201 1
7770 8201 8202 1
7771 8202 8203 1
7772 8203 8204 1
7773 8204 8205 1
7774 8205 8206 1
7775 8206 8207 1
7776 8207 8208 1
7777 8209 8210 1
7778 8210 8211 1
7779 8211 8212 1
7780 8212 8213 1
7781 8213 8214 1
7782 8214 8215 1
7783 8215 8216 1
7784 8216 8217 1
7785 8217 8218 1
7786 8218 8219 1
7787 8219 8220 1
7788 8220 8221 1
7789 8221 8222 1
7790 8222 8223 1
7791 8223 8224 1
7792 8224 8225 1
7793 8225 8226 1
7794 8226 8227 1
7795 8228 8229 1
7796 8229 8230 1
7797 8230 8231 1
7798 8231 8232 1
7799 8232 8233 1
7800 8233 8234 1
7801 8234 8235 1
7802 8235 8236 1
7803 8236 8237 1
7804 8237 8238 1
7805 8238 8239 1
7806 8239 8240 1
7807 8240 8241 1
7808 8241 8242 1
7809 8242 8243 1
7810 8243 8244 1
7811 8244 8245 1
7812 8245 8246 1
7813 8247 8248 1
7814 8248 8249 1
7815 8249 8250 1
7816 8250 8251 1
7817 8251 8252 1
7818 8252 8253 1
7819 8253 8254 1
7820 8254 8255 1
7821 8255 8256 1
7822 8256 8257 1
7823 8257 8258 1
7824 8258 8259 1
7825 8259 8260 1
7826 8260 8261 1
7827 8261 8262 1
7828 8262 8263 1
7829 8263 8264 1
7830 8264 8265 1
7831 8266 8267 1
7832 8267 8268 1
7833 8268 8269 1
7834 8269 8270 1
7835 8270 8271 1
7836 8271 8272 1
7837 8272 8273 1
7838 8273 8274 1
7839 8274 8275 1
7840 8275 8276 1
7841 8276 8277 1
7842 8277 8278 1
7843 8278 8279 1
7844 8279 8280 1
7845 8280 8281 1
7846 8281 8282 1
7847 8282 8283 1
7848 8283 8284 1
7849 8285 8286 1
7850 8286 8287 1
7851 8287 8288 1
7852 8288 8289 1
7853 8289 8290 1
7854 8290 8291 1
7855 8291 8292 1
7856 8292 8293 1
7857 8293 8294 1
7858 8294 8295 1
7859 8295 8296 1
7860 8296 8297 1
7861 8297 8298 1
7862 8298 8299 1
7863 8299 8300 1
7864 8300 8301 1
7865 8301 8302 1
7866 8302 8303 1
7867 8304 8305 1
7868 8305 8306 1
7869 8306 8307 1
7870 8307 8308 1
7871 8308 8309 1
7872 8309 8310 1
7873 8310 8311 1
7874 8311 8312 1
7875 8312 8313 1
7876 8313 8314 1
7877 8314 8315 1
7878 8315 8316 1
7879 8316 8317 1
7880 8317 8318 1
7881 8318 8319 1
7882 8319 8320 1
7883 8320 8321 1
7884 8321 8322 1
7885 8323 8324 1
7886 8324 8325 1
7887 8325 8326 1
7888 8326 8327 1
7889 8327 8328 1
7890 8328 8329 1
7891 8329 8330 1
7892 8330 8331 1
7893 8331 8332 1
7894 8332 8333 1
7895 8333 8334 1
7896 8334 8335 1
7897 8335 8336 1
7898 8336 8337 1
7899 8337 8338 1
7900 8338 8339 1
7901 8339 8340 1
7902 8340 8341 1
7903 8342 8343 1
7904 8343 8344 1
7905 8344 8345 1
7906 8345 8346 1
7907 8346 8347 1
7908 8347 8348 1
7909 8348 8349 1
7910 8349 8350 1
7911 8350 8351 1
7912 8351 8352 1
7913 8352 8353 1
7914 8353 8354 1
7915 8354 8355 1
7916 8355 8356 1
7917 8356 8357 1
7918 8357 8358 1
7919 8358 8359 1
7920 8359 8360 1
7921 8361 8362 1
7922 8362 8363 1
7923 8363 8364 1
7924 8364 8365 1
7925 8365 8366 1
7926 8366 8367 1
7927 8367 8368 1
7928 8368 8369 1
7929 8369 8370 1
7930 8370 8371 1
7931 8371 8372 1
7932 8372 8373 1
7933 8373 8374 1
7934 8374 8375 1
7935 8375 8376 1
7936 8376 8377 1
7937 8377 8378 1
7938 8378 8379 1
7939 8380 8381 1
7940 8381 8382 1
7941 8382 8383 1
7942 8383 8384 1
7943 8384 8385 1
7944 8385 8386 1
7945 8386 8387 1
7946 8387 8388 1
7947 8388 8389 1
7948 8389 8390 1
7949 8390 8391 1
7950 8391 8392 1
7951 8392 8393 1
7952 8393 8394 1
7953 8394 8395 1
7954 8395 8396 1
7955 8396 8397 1
7956 8397 8398 1
7957 8399 8400 1
7958 8400 8401 1
7959 8401 8402 1
7960 8402 8403 1
7961 8403 8404 1
7962 8404 8405 1
7963 8405 8406 1
7964 8406 8407 1
7965 8407 8408 1
7966 8408 8409 1
7967 8409 8410 1
7968 8410 8411 1
7969 8411 8412 1
7970 8412 8413 1
7971 8413 8414 1
7972 8414 8415 1
7973 8415 8416 1
7974 8416 8417 1
7975 8418 8419 1
7976 8419 8420 1
7977 8420 8421 1
7978 8421 8422 1
7979 8422 8423 1
7980 8423 8424 1
7981 8424 8425 1
7982 8425 8426 1
7983 8426 8427 1
7984 8427 8428 1
7985 8428 8429 1
7986 8429 8430 1
7987 8430 8431 1
7988 8431 8432 1
7989 8432 8433 1
7990 8433 8434 1
7991 8434 8435 1
7992 8435 8436 1
7993 8437 8438 1
7994 8438 8439 1
7995 8439 8440 1
7996 8440 8441 1
7997 8441 8442 1
7998 8442 8443 1
7999 8443 8444 1
8000 8444 8445 1
8001 8445 8446 1
8002 8446 8447 1
8003 8447 8448 1
8004 8448 8449 1
8005 8449 8450 1
8006 8450 8451 1
8007 8451 8452 1
8008 8452 8453 1
8009 8453 8454 1
8010 8454 8455 1
8011 8456 8457 1
8012 8457 8458 1
8013 8458 8459 1
8014 8459 8460 1
8015 8460 8461 1
8016 8461 8462 1
8017 8462 8463 1
8018 8463 8464 1
8019 8464 8465 1
8020 8465 8466 1
8021 8466 8467 1
8022 8467 8468 1
8023 8468 8469 1
8024 8469 8470 1
8025 8470 8471 1
8026 8471 8472 1
8027 8472 8473 1
8028 8473 8474 1
8029 8475 8476 1
8030 8476 8477 1
8031 8477 8478 1
8032 8478 8479 1
8033 8479 8480 1
8034 8480 8481 1
8035 8481 8482 1
8036 8482 8483 1
8037 8483 8484 1
8038 8484 8485 1
8039 8485 8486 1
8040 8486 8487 1
8041 8487 8488 1
8042 8488 8489 1
8043 8489 8490 1
8044 8490 8491 1
8045 8491 8492 1
8046 8492 8493 1
8047 8494 8495 1
8048 8495 8496 1
8049 8496 8497 1
8050 8497 8498 1
8051 8498 8499 1
8052 8499 8500 1
8053 8500 8501 1
8054 8501 8502 1
8055 8502 8503 1
8056 8503 8504 1
8057 8504 8505 1
8058 8505 8506 1
8059 8506 8507 1
8060 8507 8508 1
8061 8508 8509 1
8062 8509 8510 1
8063 8510 8511 1
8064 8511 8512 1
8065 8513 8514 1
8066 8514 8515 1
8067 8515 8516 1
8068 8516 8517 1
8069 8517 8518 1
8070 8518 8519 1
8071 8519 8520 1
8072 8520 8521 1
8073 8521 8522 1
8074 8522 8523 1
8075 8523 8524 1
8076 8524 8525 1
8077 8525 8526 1
8078 8526 8527 1
8079 8527 8528 1
8080 8528 8529 1
8081 8529 8530 1
8082 8530 8531 1
8083 8532 8533 1
8084 8533 8534 1
8085 8534 8535 1
8086 8535 8536 1
8087 8536 8537 1
8088 8537 8538 1
8089 8538 8539 1
8090 8539 8540 1
8091 8540 8541 1
8092 8541 8542 1
8093 8542 8543 1
8094 8543 8544 1
8095 8544 8545 1
8096 8545 8546 1
8097 8546 8547 1
8098 8547 8548 1
8099 8548 8549 1
8100 8549 8550 1
8101 8551 8552 1
8102 8552 8553 1
8103 8553 8554 1
8104 8554 8555 1
8105 8555 8556 1
8106 8556 8557 1
8107 8557 8558 1
8108 8558 8559 1
8109 8559 8560 1
8110 8560 8561 1
8111 8561 8562 1
8112 8562 8563 1
8113 8563 8564 1
8114 8564 8565 1
8115 8565 8566 1
8116 8566 8567 1
8117 8567 8568 1
8118 8568 8569 1
8119 8570 8571 1
8120 8571 8572 1
8121 8572 8573 1
8122 8573 8574 1
8123 8574 8575 1
8124 8575 8576 1
8125 8576 8577 1
8126 8577 8578 1
8127 8578 8579 1
8128 8579 8580 1
8129 8580 8581 1
8130 8581 8582 1
8131 8582 8583 1
8132 8583 8584 1
8133 8584 8585 1
8134 8585 8586 1
8135 8586 8587 1
8136 8587 8588 1
8137 8589 8590 1
8138 8590 8591 1
8139 8591 8592 1
8140 8592 8593 1
8141 8593 8594 1
8142 8594 8595 1
8143 8595 8596 1
8144 8596 8597 1
8145 8597 8598 1
8146 8598 8599 1
8147 8599 8600 1
8148 8600 8601 1
8149 8601 8602 1
8150 8602 8603 1
8151 8603 8604 1
8152 8604 8605 1
8153 8605 8606 1
8154 8606 8607 1
8155 8608 8609 1
8156 8609 8610 1
8157 8610 8611 1
8158 8611 8612 1
8159 8612 8613 1
8160 8613 8614 1
8161 8614 8615 1
8162 8615 8616 1
8163 8616 8617 1
8164 8617 8618 1
8165 8618 8619 1
8166 8619 8620 1
8167 8620 8621 1
8168 8621 8622 1
8169 8622 8623 1
8170 8623 8624 1
8171 8624 8625 1
8172 8625 8626 1
8173 8627 8628 1
8174 8628 8629 1
8175 8629 8630 1
8176 8630 8631 1
8177 8631 8632 1
8178 8632 8633 1
8179 8633 8634 1
8180 8634 8635 1
8181 8635 8636 1
8182 8636 8637 1
8183 8637 8638 1
8184 8638 8639 1
8185 8639 8640 1
8186 8640 8641 1
8187 8641 8642 1
8188 8642 8643 1
8189 8643 8644 1
8190 8644 8645 1
8191 8646 8647 1
8192 8647 8648 1
8193 8648 8649 1
8194 8649 8650 1
8195 8650 8651 1
8196 8651 8652 1
8197 8652 8653 1
8198 8653 8654 1
8199 8654 8655 1
8200 8655 8656 1
8201 8656 8657 1
8202 8657 8658 1
8203 8658 8659 1
8204 8659 8660 1
8205 8660 8661 1
8206 8661 8662 1
8207 8662 8663 1
8208 8663 8664 1
8209 8665 8666 1
8210 8666 8667 1
8211 8667 8668 1
8212 8668 8669 1
8213 8669 8670 1
8214 8670 8671 1
8215 8671 8672 1
8216 8672 8673 1
8217 8673 8674 1
8218 8674 8675 1
8219 8675 8676 1
8220 8676 8677 1
8221 8677 8678 1
8222 8678 8679 1
8223 8679 8680 1
8224 8680 8681 1
8225 8681 8682 1
8226 8682 8683 1
8227 8684 8685 1
8228 8685 8686 1
8229 8686 8687 1
8230 8687 8688 1
8231 8688 8689 1
8232 8689 8690 1
8233 8690 8691 1
8234 8691 8692 1
8235 8692 8693 1
8236 8693 8694 1
8237 8694 8695 1
8238 8695 8696 1
8239 8696 8697 1
8240 8697 8698 1
8241 8698 8699 1
8242 8699 8700 1
8243 8700 8701 1
8244 8701 8702 1
8245 8703 8704 1
8246 8704 8705 1
8247 8705 8706 1
8248 8706 8707 1
8249 8707 8708 1
8250 8708 8709 1
8251 8709 8710 1
8252 8710 8711 1
8253 8711 8712 1
8254 8712 8713 1
8255 8713 8714 1
8256 8714 8715 1
8257 8715 8716 1
8258 8716 8717 1
8259 8717 8718 1
8260 8718 8719 1
8261 8719 8720 1
8262 8720 8721 1
8263 8722 8723 1
8264 8723 8724 1
8265 8724 8725 1
8266 8725 8726 1
8267 8726 8727 1
8268 8727 8728 1
8269 8728 8729 1
8270 8729 8730 1
8271 8730 8731 1
8272 8731 8732 1
8273 8732 8733 1
8274 8733 8734 1
8275 8734 8735 1
8276 8735 8736 1
8277 8736 8737 1
8278 8737 8738 1
8279 8738 8739 1
8280 8739 8740 1
8281 8741 8742 1
8282 8742 8743 1
8283 8743 8744 1
8284 8744 8745 1
8285 8745 8746 1
8286 8746 8747 1
8287 8747 8748 1
8288 8748 8749 1
8289 8749 8750 1
8290 8750 8751 1
8291 8751 8752 1
8292 8752 8753 1
8293 8753 8754 1
8294 8754 8755 1
8295 8755 8756 1
8296 8756 8757 1
8297 8757 8758 1
8298 8758 8759 1
8299 8760 8761 1
8300 8761 8762 1
8301 8762 8763 1
8302 8763 8764 1
8303 8764 8765 1
8304 8765 8766 1
8305 8766 8767 1
8306 8767 8768 1
8307 8768 8769 1
8308 8769 8770 1
8309 8770 8771 1
8310 8771 8772 1
8311 8772 8773 1
8312 8773 8774 1
8313 8774 8775 1
8314 8775 8776 1
8315 8776 8777 1
8316 8777 8778 1
8317 8779 8780 1
8318 8780 8781 1
8319 8781 8782 1
8320 8782 8783 1
8321 8783 8784 1
8322 8784 8785 1
8323 8785 8786 1
8324 8786 8787 1
8325 8787 8788 1
8326 8788 8789 1
8327 8789 8790 1
8328 8790 8791 1
8329 8791 8792 1
8330 8792 8793 1
8331 8793 8794 1
8332 8794 8795 1
8333 8795 8796 1
8334 8796 8797 1
8335 8798 8799 1
8336 8799 8800 1
8337 8800 8801 1
8338 8801 8802 1
8339 8802 8803 1
8340 8803 8804 1
8341 8804 8805 1
8342 8805 8806 1
8343 8806 8807 1
8344 8807 8808 1
8345 8808 8809 1
8346 8809 8810 1
8347 8810 8811 1
8348 8811 8812 1
8349 8812 8813 1
8350 8813 8814 1
8351 8814 8815 1
8352 8815 8816 1
8353 8817 8818 1
8354 8818 8819 1
8355 8819 8820 1
8356 8820 8821 1
8357 8821 8822 1
8358 8822 8823 1
8359 8823 8824 1
8360 8824 8825 1
8361 8825 8826 1
8362 8826 8827 1
8363 8827 8828 1
8364 8828 8829 1
8365 8829 8830 1
8366 8830 8831 1
8367 8831 8832 1
8368 8832 8833 1
8369 8833 8834 1
8370 8834 8835 1
8371 8836 8837 1
8372 8837 8838 1
8373 8838 8839 1
8374 8839 8840 1
8375 8840 8841 1
8376 8841 8842 1
8377 8842 8843 1
8378 8843 8844 1
8379 8844 8845 1
8380 8845 8846 1
8381 8846 8847 1
8382 8847 8848 1
8383 8848 8849 1
8384 8849 8850 1
8385 8850 8851 1
8386 8851 8852 1
8387 8852 8853 1
8388 8853 8854 1
8389 8855 8856 1
8390 8856 8857 1
8391 8857 8858 1
8392 8858 8859 1
8393 8859 8860 1
8394 8860 8861 1
8395 8861 8862 1
8396 8862 8863 1
8397 8863 8864 1
8398 8864 8865 1
8399 8865 8866 1
8400 8866 8867 1
8401 8867 8868 1
8402 8868 8869 1
8403 8869 8870 1
8404 8870 8871 1
8405 8871 8872 1
8406 8872 8873 1
8407 8874 8875 1
8408 8875 8876 1
8409 8876 8877 1
8410 8877 8878 1
8411 8878 8879 1
8412 8879 8880 1
8413 8880 8881 1
8414 8881 8882 1
8415 8882 8883 1
8416 8883 8884 1
8417 8884 8885 1
8418 8885 8886 1
8419 8886 8887 1
8420 8887 8888 1
8421 8888 8889 1
8422 8889 8890 1
8423 8890 8891 1
8424 8891 8892 1
8425 8893 8894 1
8426 8894 8895 1
8427 8895 8896 1
8428 8896 8897 1
8429 8897 8898 1
8430 8898 8899 1
8431 8899 8900 1
8432 8900 8901 1
8433 8901 8902 1
8434 8902 8903 1
8435 8903 8904 1
8436 8904 8905 1
8437 8905 8906 1
8438 8906 8907 1
8439 8907 8908 1
8440 8908 8909 1
8441 8909 8910 1
8442 8910 8911 1
8443 8912 8913 1
8444 8913 8914 1
8445 8914 8915 1
8446 8915 8916 1
8447 8916 8917 1
8448 8917 8918 1
8449 8918 8919 1
8450 8919 8920 1
8451 8920 8921 1
8452 8921 8922 1
8453 8922 8923 1
8454 8923 8924 1
8455 8924 8925 1
8456 8925 8926 1
8457 8926 8927 1
8458 8927 8928 1
8459 8928 8929 1
8460 8929 8930 1
8461 8931 8932 1
8462 8932 8933 1
8463 8933 8934 1
8464 8934 8935 1
8465 8935 8936 1
8466 8936 8937 1
8467 8937 8938 1
8468 8938 8939 1
8469 8939 8940 1
8470 8940 8941 1
8471 8941 8942 1
8472 8942 8943 1
8473 8943 8944 1
8474 8944 8945 1
8475 8945 8946 1
8476 8946 8947 1
8477 8947 8948 1
8478 8948 8949 1
8479 8950 8951 1
8480 8951 8952 1
8481 8952 8953 1
8482 8953 8954 1
8483 8954 8955 1
8484 8955 8956 1
8485 8956 8957 1
8486 8957 8958 1
8487 8958 8959 1
8488 8959 8960 1
8489 8960 8961 1
8490 8961 8962 1
8491 8962 8963 1
8492 8963 8964 1
8493 8964 8965 1
8494 8965 8966 1
8495 8966 8967 1
8496 8967 8968 1
8497 8969 8970 1
8498 8970 8971 1
8499 8971 8972 1
8500 8972 8973 1
8501 8973 8974 1
8502 8974 8975 1
8503 8975 8976 1
8504 8976 8977 1
8505 8977 8978 1
8506 8978 8979 1
8507 8979 8980 1
8508 8980 8981 1
8509 8981 8982 1
8510 8982 8983 1
8511 8983 8984 1
8512 8984 8985 1
8513 8985 8986 1
8514 8986 8987 1
8515 8988 8989 1
8516 8989 8990 1
8517 8990 8991 1
8518 8991 8992 1
8519 8992 8993 1
8520 8993 8994 1
8521 8994 8995 1
8522 8995 8996 1
8523 8996 8997 1
8524 8997 8998 1
8525 8998 8999 1
8526 8999 9000 1
8527 9000 9001 1
8528 9001 9002 1
8529 9002 9003 1
8530 9003 9004 1
8531 9004 9005 1
8532 9005 9006 1
8533 9007 9008 1
8534 9008 9009 1
8535 9009 9010 1
8536 9010 9011 1
8537 9011 9012 1
8538 9012 9013 1
8539 9013 9014 1
8540 9014 9015 1
8541 9015 9016 1
8542 9016 9017 1
8543 9017 9018 1
8544 9018 9019 1
8545 9019 9020 1
8546 9020 9021 1
8547 9021 9022 1
8548 9022 9023 1
8549 9023 9024 1
8550 9024 9025 1
8551 9026 9027 1
8552 9027 9028 1
8553 9028 9029 1
8554 9029 9030 1
8555 9030 9031 1
8556 9031 9032 1
8557 9032 9033 1
8558 9033 9034 1
8559 9034 9035 1
8560 9035 9036 1
8561 9036 9037 1
8562 9037 9038 1
8563 9038 9039 1
8564 9039 9040 1
8565 9040 9041 1
8566 9041 9042 1
8567 9042 9043 1
8568 9043 9044 1
8569 9045 9046 1
8570 9046 9047 1
8571 9047 9048 1
8572 9048 9049 1
8573 9049 9050 1
8574 9050 9051 1
8575 9051 9052 1
8576 9052 9053 1
8577 9053 9054 1
8578 9054 9055 1
8579 9055 9056 1
8580 9056 9057 1
8581 9057 9058 1
8582 9058 9059 1
8583 9059 9060 1
8584 9060 9061 1
8585 9061 9062 1
8586 9062 9063 1
8587 9064 9065 1
8588 9065 9066 1
8589 9066 9067 1
8590 9067 9068 1
8591 9068 9069 1
8592 9069 9070 1
8593 9070 9071 1
8594 9071 9072 1
8595 9072 9073 1
8596 9073 9074 1
8597 9074 9075 1
8598 9075 9076 1
8599 9076 9077 1
8600 9077 9078 1
8601 9078 9079 1
8602 9079 9080 1
8603 9080 9081 1
8604 9081 9082 1
8605 9083 9084 1
8606 9084 9085 1
8607 9085 9086 1
8608 9086 9087 1
8609 9087 9088 1
8610 9088 9089 1
8611 9089 9090 1
8612 9090 9091 1
8613 9091 9092 1
8614 9092 9093 1
8615 9093 9094 1
8616 9094 9095 1
8617 9095 9096 1
8618 9096 9097 1
8619 9097 9098 1
8620 9098 9099 1
8621 9099 9100 1
8622 9100 9101 1
8623 9102 9103 1
8624 9103 9104 1
8625 9104 9105 1
8626 9105 9106 1
8627 9106 9107 1
8628 9107 9108 1
8629 9108 9109 1
8630 9109 9110 1
8631 9110 9111 1
8632 9111 9112 1
8633 9112 9113 1
8634 9113 9114 1
8635 9114 9115 1
8636 9115 9116 1
8637 9116 9117 1
8638 9117 9118 1
8639 9118 9119 1
8640 9119 9120 1
8641 9121 9122 1
8642 9122 9123 1
8643 9123 9124 1
8644 9124 9125 1
8645 9125 9126 1
8646 9126 9127 1
8647 9127 9128 1
8648 9128 9129 1
8649 9129 9130 1
8650 9130 9131 1
8651 9131 9132 1
8652 9132 9133 1
8653 9133 9134 1
8654 9134 9135 1
8655 9135 9136 1
8656 9136 9137 1
8657 9137 9138 1
8658 9138 9139 1
8659 9140 9141 1
8660 9141 9142 1
8661 9142 9143 1
8662 9143 9144 1
8663 9144 9145 1
8664 9145 9146 1
8665 9146 9147 1
8666 9147 9148 1
8667 9148 9149 1
8668 9149 9150 1
8669 9150 9151 1
8670 9151 9152 1
8671 9152 9153 1
8672 9153 9154 1
8673 9154 9155 1
8674 9155 9156 1
8675 9156 9157 1
8676 9157 9158 1
8677 9159 9160 1
8678 9160 9161 1
8679 9161 9162 1
8680 9162 9163 1
8681 9163 9164 1
8682 9164 9165 1
8683 9165 9166 1
8684 9166 9167 1
8685 9167 9168 1
8686 9168 9169 1
8687 9169 9170 1
8688 9170 9171 1
8689 9171 9172 1
8690 9172 9173 1
8691 9173 9174 1
8692 9174 9175 1
8693 9175 9176 1
8694 9176 9177 1
8695 9178 9179 1
8696 9179 9180 1
8697 9180 9181 1
8698 9181 9182 1
8699 9182 9183 1
8700 9183 9184 1
8701 9184 9185 1
8702 9185 9186 1
8703 9186 9187 1
8704 9187 9188 1
8705 9188 9189 1
8706 9189 9190 1
8707 9190 9191 1
8708 9191 9192 1
8709 9192 9193 1
8710 9193 9194 1
8711 9194 9195 1
8712 9195 9196 1
8713 9197 9198 1
8714 9198 9199 1
8715 9199 9200 1
8716 9200 9201 1
8717 9201 9202 1
8718 9202 9203 1
8719 9203 9204 1
8720 9204 9205 1
8721 9205 9206 1
8722 9206 9207 1
8723 9207 9208 1
8724 9208 9209 1
8725 9209 9210 1
8726 9210 9211 1
8727 9211 9212 1
8728 9212 9213 1
8729 9213 9214 1
8730 9214 9215 1
8731 9216 9217 1
8732 9217 9218 1
8733 9218 9219 1
8734 9219 9220 1
8735 9220 9221 1
8736 9221 9222 1
8737 9222 9223 1
8738 9223 9224 1
8739 9224 9225 1
8740 9225 9226 1
8741 9226 9227 1
8742 9227 9228 1
8743 9228 9229 1
8744 9229 9230 1
8745 9230 9231 1
8746 9231 9232 1
8747 9232 9233 1
8748 9233 9234 1
8749 9235 9236 1
8750 9236 9237 1
8751 9237 9238 1
8752 9238 9239 1
8753 9239 9240 1
8754 9240 9241 1
8755 9241 9242 1
8756 9242 9243 1
8757 9243 9244 1
8758 9244 9245 1
8759 9245 9246 1
8760 9246 9247 1
8761 9247 9248 1
8762 9248 9249 1
8763 9249 9250 1
8764 9250 9251 1
8765 9251 9252 1
8766 9252 9253 1
8767 9254 9255 1
8768 9255 9256 1
8769 9256 9257 1
8770 9257 9258 1
8771 9258 9259 1
8772 9259 9260 1
8773 9260 9261 1
8774 9261 9262 1
8775 9262 9263 1
8776 9263 9264 1
8777 9264 9265 1
8778 9265 9266 1
8779 9266 9267 1
8780 9267 9268 1
8781 9268 9269 1
8782 9269 9270 1
8783 9270 9271 1
8784 9271 9272 1
8785 9273 9274 1
8786 9274 9275 1
8787 9275 9276 1
8788 9276 9277 1
8789 9277 9278 1
8790 9278 9279 1
8791 9279 9280 1
8792 9280 9281 1
8793 9281 9282 1
8794 9282 9283 1
8795 9283 9284 1
8796 9284 9285 1
8797 9285 9286 1
8798 9286 9287 1
8799 9287 9288 1
8800 9288 9289 1
8801 9289 9290 1
8802 9290 9291 1
8803 9292 9293 1
8804 9293 9294 1
8805 9294 9295 1
8806 9295 9296 1
8807 9296 9297 1
8808 9297 9298 1
8809 9298 9299 1
8810 9299 9300 1
8811 9300 9301 1
8812 9301 9302 1
8813 9302 9303 1
8814 9303 9304 1
8815 9304 9305 1
8816 9305 9306 1
8817 9306 9307 1
8818 9307 9308 1
8819 9308 9309 1
8820 9309 9310 1
8821 9311 9312 1
8822 9312 9313 1
8823 9313 9314 1
8824 9314 9315 1
8825 9315 9316 1
8826 9316 9317 1
8827 9317 9318 1
8828 9318 9319 1
8829 9319 9320 1
8830 9320 9321 1
8831 9321 9322 1
8832 9322 9323 1
8833 9323 9324 1
8834 9324 9325 1
8835 9325 9326 1
8836 9326 9327 1
8837 9327 9328 1
8838 9328 9329 1
8839 9330 9331 1
8840 9331 9332 1
8841 9332 9333 1
8842 9333 9334 1
8843 9334 9335 1
8844 9335 9336 1
8845 9336 9337 1
8846 9337 9338 1
8847 9338 9339 1
8848 9339 9340 1
8849 9340 9341 1
8850 9341 9342 1
8851 9342 9343 1
8852 9343 9344 1
8853 9344 9345 1
8854 9345 9346 1
8855 9346 9347 1
8856 9347 9348 1
8857 9349 9350 1
8858 9350 9351 1
8859 9351 9352 1
8860 9352 9353 1
8861 9353 9354 1
8862 9354 9355 1
8863 9355 9356 1
8864 9356 9357 1
8865 9357 9358 1
8866 9358 9359 1
8867 9359 9360 1
8868 9360 9361 1
8869 9361 9362 1
8870 9362 9363 1
8871 9363 9364 1
8872 9364 9365 1
8873 9365 9366 1
8874 9366 9367 1
8875 9368 9369 1
8876 9369 9370 1
8877 9370 9371 1
8878 9371 9372 1
8879 9372 9373 1
8880 9373 9374 1
8881 9374 9375 1
8882 9375 9376 1
8883 9376 9377 1
8884 9377 9378 1
8885 9378 9379 1
8886 9379 9380 1
8887 9380 9381 1
8888 9381 9382 1
8889 9382 9383 1
8890 9383 9384 1
8891 9384 9385 1
8892 9385 9386 1
8893 9387 9388 1
8894 9388 9389 1
8895 9389 9390 1
8896 9390 9391 1
8897 9391 9392 1
8898 9392 9393 1
8899 9393 9394 1
8900 9394 9395 1
8901 9395 9396 1
8902 9396 9397 1
8903 9397 9398 1
8904 9398 9399 1
8905 9399 9400 1
8906 9400 9401 1
8907 9401 9402 1
8908 9402 9403 1
8909 9403 9404 1
8910 9404 9405 1
8911 9406 9407 1
8912 9407 9408 1
8913 9408 9409 1
8914 9409 9410 1
8915 9410 9411 1
8916 9411 9412 1
8917 9412 9413 1
8918 9413 9414 1
8919 9414 9415 1
8920 9415 9416 1
8921 9416 9417 1
8922 9417 9418 1
8923 9418 9419 1
8924 9419 9420 1
8925 9420 9421 1
8926 9421 9422 1
8927 9422 9423 1
8928 9423 9424 1
8929 9425 9426 1
8930 9426 9427 1
8931 9427 9428 1
8932 9428 9429 1
8933 9429 9430 1
8934 9430 9431 1
8935 9431 9432 1
8936 9432 9433 1
8937 9433 9434 1
8938 9434 9435 1
8939 9435 9436 1
8940 9436 9437 1
8941 9437 9438 1
8942 9438 9439 1
8943 9439 9440 1
8944 9440 9441 1
8945 9441 9442 1
8946 9442 9443 1
8947 9444 9445 1
8948 9445 9446 1
8949 9446 9447 1
8950 9447 9448 1
8951 9448 9449 1
8952 9449 9450 1
8953 9450 9451 1
8954 9451 9452 1
8955 9452 9453 1
8956 9453 9454 1
8957 9454 9455 1
8958 9455 9456 1
8959 9456 9457 1
8960 9457 9458 1
8961 9458 9459 1
8962 9459 9460 1
8963 9460 9461 1
8964 9461 9462 1
8965 9463 9464 1
8966 9464 9465 1
8967 9465 9466 1
8968 9466 9467 1
8969 9467 9468 1
8970 9468 9469 1
8971 9469 9470 1
8972 9470 9471 1
8973 9471 9472 1
8974 9472 9473 1
8975 9473 9474 1
8976 9474 9475 1
8977 9475 9476 1
8978 9476 9477 1
8979 9477 9478 1
8980 9478 9479 1
8981 9479 9480 1
8982 9480 9481 1
8983 9482 9483 1
8984 9483 9484 1
8985 9484 9485 1
8986 9485 9486 1
8987 9486 9487 1
8988 9487 9488 1
8989 9488 9489 1
8990 9489 9490 1
8991 9490 9491 1
8992 9491 9492 1
8993 9492 9493 1
8994 9493 9494 1
8995 9494 9495 1
8996 9495 9496 1
8997 9496 9497 1
8998 9497 9498 1
8999 9498 9499 1
9000 9499 9500 1
